xflr5 v6.50

 Calculated polar for: Mark I

 1 1 Reynolds number fixed          Mach number fixed         

 xtrf =   1.000 (top)        1.000 (bottom)
 Mach =   0.000     Re =     0.350 e 6     Ncrit =   9.000

  alpha     CL        CD       CDp       Cm    Top Xtr Bot Xtr   Cpmin    Chinge    XCp    
 ------- -------- --------- --------- -------- ------- ------- -------- --------- ---------
  -3.000  -0.3719   0.00904   0.00361   0.0034  0.9804  0.4932  -1.1277   0.0000   0.2543
  -2.500  -0.2977   0.00857   0.00340  -0.0004  0.9683  0.5636  -0.9344   0.0000   0.2440
  -2.000  -0.2256   0.00811   0.00321  -0.0035  0.9549  0.6292  -0.7755   0.0000   0.2298
  -1.500  -0.1614   0.00770   0.00302  -0.0046  0.9360  0.6891  -0.6516   0.0000   0.2168
  -1.000  -0.1046   0.00738   0.00287  -0.0038  0.9100  0.7438  -0.5550   0.0000   0.2089
  -0.500  -0.0512   0.00716   0.00276  -0.0021  0.8782  0.7941  -0.4781   0.0000   0.2036
   0.000   0.0000   0.00708   0.00276  -0.0000  0.8385  0.8385  -0.4144   0.0000   0.4622
   0.500   0.0512   0.00716   0.00276   0.0021  0.7941  0.8782  -0.4781   0.0000   0.2036
   1.000   0.1046   0.00738   0.00287   0.0038  0.7438  0.9100  -0.5550   0.0000   0.2089
   1.500   0.1613   0.00770   0.00302   0.0046  0.6891  0.9360  -0.6516   0.0000   0.2168
   2.000   0.2256   0.00811   0.00321   0.0035  0.6292  0.9549  -0.7755   0.0000   0.2298
   2.500   0.2977   0.00857   0.00340   0.0004  0.5636  0.9683  -0.9344   0.0000   0.2440
   3.000   0.3719   0.00904   0.00361  -0.0034  0.4932  0.9804  -1.1277   0.0000   0.2543
   3.500   0.4515   0.00955   0.00383  -0.0087  0.4168  0.9889  -1.3597   0.0000   0.2642
   4.000   0.5290   0.01011   0.00407  -0.0137  0.3373  0.9974  -1.6195   0.0000   0.2707
   4.500   0.5855   0.01068   0.00432  -0.0146  0.2664  1.0000  -1.8525   0.0000   0.2693
   5.000   0.6292   0.01126   0.00465  -0.0127  0.2074  1.0000  -2.0979   0.0000   0.2642
   5.500   0.6710   0.01202   0.00517  -0.0105  0.1548  1.0000  -2.3492   0.0000   0.2593
   6.000   0.7120   0.01281   0.00578  -0.0080  0.1166  1.0000  -2.6012   0.0000   0.2544
   6.500   0.7522   0.01368   0.00652  -0.0052  0.0916  1.0000  -2.8548   0.0000   0.2497
   7.000   0.7910   0.01471   0.00746  -0.0023  0.0737  1.0000  -3.1206   0.0000   0.2452
   7.500   0.8315   0.01559   0.00838   0.0004  0.0627  1.0000  -3.4441   0.0000   0.2413
   8.000   0.8699   0.01675   0.00961   0.0035  0.0548  1.0000  -3.7550   0.0000   0.2373
   8.500   0.9051   0.01835   0.01120   0.0068  0.0478  1.0000  -4.0573   0.0000   0.2333
   9.000   0.9456   0.01954   0.01254   0.0093  0.0438  1.0000  -4.3876   0.0000   0.2304
   9.500   0.9859   0.02069   0.01376   0.0115  0.0391  1.0000  -4.7399   0.0000   0.2280
  10.000   1.0178   0.02315   0.01637   0.0147  0.0356  1.0000  -5.0190   0.0000   0.2246
  10.500   1.0545   0.02483   0.01826   0.0172  0.0333  1.0000  -5.3393   0.0000   0.2221
  11.000   1.0875   0.02678   0.02040   0.0199  0.0312  1.0000  -5.6504   0.0000   0.2194
  11.500   1.1160   0.02887   0.02266   0.0229  0.0294  1.0000  -5.9575   0.0000   0.2165
  12.000   1.1295   0.03244   0.02647   0.0272  0.0277  1.0000  -6.1686   0.0000   0.2122
  12.500   1.1268   0.03749   0.03198   0.0320  0.0266  1.0000  -6.3091   0.0000   0.2071
  13.000   1.1292   0.04125   0.03608   0.0349  0.0259  1.0000  -6.5161   0.0000   0.2038
  13.500   1.1198   0.04692   0.04213   0.0360  0.0252  1.0000  -6.6252   0.0000   0.2016
  14.000   1.0994   0.05486   0.05048   0.0340  0.0246  1.0000  -6.6392   0.0000   0.2018
  14.500   1.0656   0.06617   0.06219   0.0282  0.0243  1.0000  -6.5214   0.0000   0.2052
  15.000   1.0057   0.08404   0.08051   0.0167  0.0246  1.0000  -6.1245   0.0000   0.2140
  17.500   0.7357   0.20906   0.20604  -0.0465  0.0309  1.0000  -1.9820   0.0000   0.2945
  18.000   0.7524   0.21459   0.21159  -0.0490  0.0287  1.0000  -2.0851   0.0000   0.2955
  18.500   0.7673   0.22247   0.21946  -0.0496  0.0269  1.0000  -2.1839   0.0000   0.2942
  19.000   0.7782   0.23164   0.22863  -0.0543  0.0268  1.0000  -2.0444   0.0000   0.2987
  19.500   0.7898   0.23993   0.23691  -0.0595  0.0265  1.0000  -1.9231   0.0000   0.3036
  20.000   0.7998   0.24847   0.24544  -0.0670  0.0239  1.0000  -1.7050   0.0000   0.3116


