xflr5 v6.50

 Calculated polar for: Mark I

 1 1 Reynolds number fixed          Mach number fixed         

 xtrf =   1.000 (top)        1.000 (bottom)
 Mach =   0.000     Re =     0.262 e 6     Ncrit =   9.000

  alpha     CL        CD       CDp       Cm    Top Xtr Bot Xtr   Cpmin    Chinge    XCp    
 ------- -------- --------- --------- -------- ------- ------- -------- --------- ---------
  -3.000  -0.4194   0.01013   0.00433   0.0127  0.9931  0.5193  -1.2010   0.0000   0.2756
  -2.500  -0.3382   0.00975   0.00423   0.0072  0.9812  0.5963  -0.9891   0.0000   0.2670
  -2.000  -0.2606   0.00935   0.00414   0.0030  0.9673  0.6663  -0.8152   0.0000   0.2570
  -1.500  -0.1843   0.00899   0.00402  -0.0007  0.9523  0.7301  -0.6737   0.0000   0.2419
  -1.000  -0.1156   0.00867   0.00391  -0.0023  0.9328  0.7853  -0.5636   0.0000   0.2258
  -0.500  -0.0550   0.00845   0.00381  -0.0018  0.9068  0.8325  -0.4805   0.0000   0.2123
   0.000  -0.0000   0.00836   0.00376   0.0000  0.8741  0.8741  -0.4140   0.0000   0.4664
   0.500   0.0550   0.00845   0.00381   0.0018  0.8325  0.9068  -0.4805   0.0000   0.2123
   1.000   0.1156   0.00867   0.00391   0.0023  0.7853  0.9328  -0.5636   0.0000   0.2258
   1.500   0.1843   0.00899   0.00402   0.0007  0.7301  0.9523  -0.6736   0.0000   0.2419
   2.000   0.2606   0.00935   0.00414  -0.0030  0.6663  0.9673  -0.8152   0.0000   0.2570
   2.500   0.3382   0.00975   0.00423  -0.0072  0.5963  0.9812  -0.9891   0.0000   0.2670
   3.000   0.4195   0.01013   0.00433  -0.0127  0.5193  0.9931  -1.2010   0.0000   0.2757
   3.500   0.4921   0.01051   0.00443  -0.0167  0.4418  1.0000  -1.4339   0.0000   0.2791
   4.000   0.5375   0.01091   0.00455  -0.0152  0.3735  1.0000  -1.6312   0.0000   0.2731
   4.500   0.5815   0.01143   0.00479  -0.0134  0.3062  1.0000  -1.8346   0.0000   0.2675
   5.000   0.6236   0.01212   0.00518  -0.0113  0.2389  1.0000  -2.0746   0.0000   0.2621
   5.500   0.6645   0.01296   0.00576  -0.0088  0.1799  1.0000  -2.3207   0.0000   0.2569
   6.000   0.7042   0.01392   0.00649  -0.0062  0.1343  1.0000  -2.5649   0.0000   0.2520
   6.500   0.7426   0.01503   0.00741  -0.0032  0.1040  1.0000  -2.8073   0.0000   0.2471
   7.000   0.7807   0.01622   0.00855  -0.0001  0.0855  1.0000  -3.0542   0.0000   0.2424
   7.500   0.8182   0.01752   0.00985   0.0030  0.0718  1.0000  -3.3546   0.0000   0.2382
   8.000   0.8583   0.01858   0.01096   0.0057  0.0625  1.0000  -3.6711   0.0000   0.2347
   8.500   0.8952   0.02034   0.01281   0.0087  0.0557  1.0000  -3.9615   0.0000   0.2310
   9.000   0.9343   0.02184   0.01437   0.0112  0.0502  1.0000  -4.2780   0.0000   0.2282
   9.500   0.9702   0.02434   0.01705   0.0139  0.0456  1.0000  -4.5560   0.0000   0.2253
  10.000   1.0084   0.02580   0.01870   0.0163  0.0412  1.0000  -4.8798   0.0000   0.2229
  10.500   1.0422   0.02806   0.02105   0.0188  0.0381  1.0000  -5.1831   0.0000   0.2204
  11.000   1.0672   0.03249   0.02586   0.0219  0.0358  1.0000  -5.3738   0.0000   0.2173
  11.500   1.0900   0.03541   0.02920   0.0253  0.0344  1.0000  -5.5931   0.0000   0.2139
  12.000   1.0994   0.03900   0.03321   0.0298  0.0330  1.0000  -5.7800   0.0000   0.2093
  12.500   1.0959   0.04322   0.03782   0.0342  0.0318  1.0000  -5.9316   0.0000   0.2044
  13.000   1.0826   0.04871   0.04369   0.0366  0.0308  1.0000  -6.0167   0.0000   0.2010
  13.500   1.0569   0.05657   0.05196   0.0355  0.0303  1.0000  -5.9987   0.0000   0.2002
  14.000   1.0101   0.06936   0.06522   0.0288  0.0303  1.0000  -5.7779   0.0000   0.2042
  14.500   0.7307   0.14405   0.14060  -0.0153  0.0379  1.0000  -2.8173   0.0000   0.2547
  15.000   0.6969   0.16776   0.16430  -0.0250  0.0493  1.0000  -2.1081   0.0000   0.2700
  15.500   0.7135   0.17390   0.17044  -0.0257  0.0481  1.0000  -2.2462   0.0000   0.2695
  16.000   0.7152   0.18557   0.18210  -0.0290  0.0470  1.0000  -2.1763   0.0000   0.2736
  16.500   0.7086   0.19567   0.19216  -0.0390  0.0433  1.0000  -1.8931   0.0000   0.2877
  17.000   0.7216   0.20254   0.19904  -0.0424  0.0398  1.0000  -1.9322   0.0000   0.2908
  17.500   0.7392   0.20826   0.20479  -0.0443  0.0380  1.0000  -2.0545   0.0000   0.2911
  18.000   0.7570   0.21736   0.21389  -0.0442  0.0364  1.0000  -2.1765   0.0000   0.2888
  18.500   0.7641   0.22593   0.22246  -0.0504  0.0359  1.0000  -1.9896   0.0000   0.2959
  19.000   0.7700   0.23410   0.23061  -0.0585  0.0315  1.0000  -1.7475   0.0000   0.3054
  19.500   0.7853   0.24079   0.23731  -0.0621  0.0295  1.0000  -1.7617   0.0000   0.3076
  20.000   0.8020   0.24693   0.24346  -0.0649  0.0283  1.0000  -1.8295   0.0000   0.3087


