xflr5 v6.50

 Calculated polar for: Mark I

 1 1 Reynolds number fixed          Mach number fixed         

 xtrf =   1.000 (top)        1.000 (bottom)
 Mach =   0.000     Re =     0.175 e 6     Ncrit =   9.000

  alpha     CL        CD       CDp       Cm    Top Xtr Bot Xtr   Cpmin    Chinge    XCp    
 ------- -------- --------- --------- -------- ------- ------- -------- --------- ---------
  -3.000  -0.4472   0.01151   0.00521   0.0184  1.0000  0.5737  -1.2391   0.0000   0.2866
  -2.500  -0.4024   0.01132   0.00532   0.0202  1.0000  0.6426  -1.0828   0.0000   0.2962
  -2.000  -0.3386   0.01129   0.00556   0.0184  0.9938  0.7155  -0.9134   0.0000   0.3005
  -1.500  -0.2538   0.01127   0.00582   0.0131  0.9772  0.7851  -0.7451   0.0000   0.2978
  -1.000  -0.1717   0.01131   0.00599   0.0088  0.9584  0.8427  -0.6111   0.0000   0.2978
  -0.500  -0.0834   0.01139   0.00613   0.0038  0.9411  0.8857  -0.4995   0.0000   0.2918
   0.000   0.0000   0.01142   0.00618  -0.0000  0.9176  0.9176  -0.4125   0.0000   0.5224
   0.500   0.0834   0.01139   0.00613  -0.0038  0.8857  0.9411  -0.4995   0.0000   0.2918
   1.000   0.1717   0.01131   0.00599  -0.0088  0.8427  0.9584  -0.6111   0.0000   0.2978
   1.500   0.2537   0.01127   0.00582  -0.0131  0.7851  0.9773  -0.7450   0.0000   0.2978
   2.000   0.3386   0.01128   0.00555  -0.0184  0.7155  0.9938  -0.9134   0.0000   0.3005
   2.500   0.4023   0.01132   0.00532  -0.0202  0.6427  1.0000  -1.0826   0.0000   0.2962
   3.000   0.4471   0.01151   0.00521  -0.0183  0.5738  1.0000  -1.2389   0.0000   0.2866
   3.500   0.4919   0.01183   0.00527  -0.0165  0.5048  1.0000  -1.4239   0.0000   0.2787
   4.000   0.5354   0.01225   0.00543  -0.0144  0.4336  1.0000  -1.6164   0.0000   0.2717
   4.500   0.5774   0.01285   0.00572  -0.0120  0.3619  1.0000  -1.8116   0.0000   0.2653
   5.000   0.6176   0.01363   0.00617  -0.0094  0.2886  1.0000  -2.0423   0.0000   0.2593
   5.500   0.6564   0.01464   0.00687  -0.0066  0.2191  1.0000  -2.2784   0.0000   0.2537
   6.000   0.6946   0.01581   0.00778  -0.0037  0.1642  1.0000  -2.5110   0.0000   0.2485
   6.500   0.7320   0.01716   0.00894  -0.0006  0.1279  1.0000  -2.7396   0.0000   0.2436
   7.000   0.7683   0.01872   0.01032   0.0026  0.1042  1.0000  -2.9657   0.0000   0.2389
   7.500   0.8064   0.02035   0.01197   0.0056  0.0890  1.0000  -3.2476   0.0000   0.2349
   8.000   0.8460   0.02195   0.01363   0.0083  0.0770  1.0000  -3.5384   0.0000   0.2315
   8.500   0.8853   0.02416   0.01593   0.0108  0.0681  1.0000  -3.8194   0.0000   0.2286
   9.000   0.9254   0.02627   0.01809   0.0130  0.0615  1.0000  -4.1136   0.0000   0.2262
   9.500   0.9629   0.02980   0.02202   0.0154  0.0569  1.0000  -4.3452   0.0000   0.2238
  10.000   0.9975   0.03246   0.02502   0.0181  0.0522  1.0000  -4.5936   0.0000   0.2211
  10.500   1.0266   0.03653   0.02920   0.0203  0.0474  1.0000  -4.8440   0.0000   0.2188
  11.000   1.0426   0.04070   0.03401   0.0244  0.0457  1.0000  -4.9779   0.0000   0.2147
  11.500   1.0436   0.04581   0.03975   0.0290  0.0443  1.0000  -5.0342   0.0000   0.2096
  12.000   1.0194   0.05174   0.04623   0.0345  0.0435  1.0000  -5.0097   0.0000   0.2028
  12.500   0.9760   0.06027   0.05528   0.0355  0.0434  1.0000  -4.8796   0.0000   0.1993
  13.000   0.9099   0.07502   0.07052   0.0274  0.0442  1.0000  -4.5428   0.0000   0.2045
  13.500   0.7998   0.10542   0.10123   0.0066  0.0468  1.0000  -3.7060   0.0000   0.2257
  14.000   0.6891   0.15384   0.14966  -0.0159  0.0740  1.0000  -2.0745   0.0000   0.2587
  14.500   0.6972   0.16468   0.16049  -0.0171  0.0723  1.0000  -2.0951   0.0000   0.2596
  15.000   0.6746   0.17530   0.17104  -0.0287  0.0669  1.0000  -1.7726   0.0000   0.2773
  15.500   0.6861   0.18233   0.17807  -0.0315  0.0631  1.0000  -1.8115   0.0000   0.2799
  16.000   0.7069   0.18871   0.18446  -0.0320  0.0608  1.0000  -1.9495   0.0000   0.2787
  16.500   0.7296   0.19927   0.19508  -0.0311  0.0592  1.0000  -2.0998   0.0000   0.2754
  17.000   0.7185   0.20620   0.20192  -0.0412  0.0577  1.0000  -1.8315   0.0000   0.2896
  17.500   0.7284   0.21285   0.20859  -0.0463  0.0511  1.0000  -1.8029   0.0000   0.2951
  18.000   0.7495   0.21890   0.21467  -0.0471  0.0485  1.0000  -1.9464   0.0000   0.2936
  18.500   0.7707   0.23043   0.22622  -0.0473  0.0470  1.0000  -2.0280   0.0000   0.2915
  19.000   0.7673   0.23572   0.23146  -0.0579  0.0444  1.0000  -1.7086   0.0000   0.3050
  19.500   0.7816   0.24281   0.23855  -0.0621  0.0406  1.0000  -1.6739   0.0000   0.3082
  20.000   0.7982   0.24922   0.24498  -0.0651  0.0384  1.0000  -1.7155   0.0000   0.3095


