xflr5 v6.50

 Calculated polar for: Mark I

 1 1 Reynolds number fixed          Mach number fixed         

 xtrf =   1.000 (top)        1.000 (bottom)
 Mach =   0.000     Re =     0.175 e 6     Ncrit =   4.280

  alpha     CL        CD       CDp       Cm    Top Xtr Bot Xtr   Cpmin    Chinge    XCp    
 ------- -------- --------- --------- -------- ------- ------- -------- --------- ---------
  -3.000  -0.3509   0.01164   0.00422  -0.0004  0.9536  0.4276  -1.0903   0.0000   0.2439
  -2.500  -0.2880   0.01114   0.00398  -0.0018  0.9343  0.4920  -0.9190   0.0000   0.2390
  -2.000  -0.2263   0.01071   0.00378  -0.0027  0.9115  0.5530  -0.7748   0.0000   0.2335
  -1.500  -0.1666   0.01034   0.00358  -0.0029  0.8840  0.6109  -0.6559   0.0000   0.2278
  -1.000  -0.1085   0.01005   0.00344  -0.0026  0.8515  0.6657  -0.5580   0.0000   0.2216
  -0.500  -0.0540   0.00987   0.00337  -0.0014  0.8113  0.7175  -0.4803   0.0000   0.2190
   0.000   0.0000   0.00981   0.00333  -0.0000  0.7669  0.7669  -0.4150   0.0000   0.4627
   0.500   0.0540   0.00987   0.00337   0.0014  0.7175  0.8113  -0.4803   0.0000   0.2190
   1.000   0.1085   0.01005   0.00344   0.0026  0.6657  0.8515  -0.5580   0.0000   0.2216
   1.500   0.1666   0.01034   0.00358   0.0029  0.6109  0.8840  -0.6559   0.0000   0.2278
   2.000   0.2263   0.01071   0.00378   0.0027  0.5531  0.9115  -0.7748   0.0000   0.2335
   2.500   0.2879   0.01114   0.00398   0.0018  0.4920  0.9343  -0.9189   0.0000   0.2390
   3.000   0.3509   0.01164   0.00422   0.0004  0.4276  0.9537  -1.0903   0.0000   0.2439
   3.500   0.4158   0.01220   0.00452  -0.0017  0.3613  0.9697  -1.2831   0.0000   0.2488
   4.000   0.4828   0.01287   0.00494  -0.0044  0.2922  0.9829  -1.5189   0.0000   0.2537
   4.500   0.5509   0.01360   0.00540  -0.0076  0.2266  0.9941  -1.7654   0.0000   0.2581
   5.000   0.6092   0.01437   0.00593  -0.0089  0.1733  1.0000  -2.0319   0.0000   0.2586
   5.500   0.6505   0.01513   0.00656  -0.0065  0.1361  1.0000  -2.2792   0.0000   0.2536
   6.000   0.6918   0.01592   0.00725  -0.0041  0.1076  1.0000  -2.5311   0.0000   0.2491
   6.500   0.7324   0.01682   0.00807  -0.0016  0.0875  1.0000  -2.7876   0.0000   0.2449
   7.000   0.7730   0.01777   0.00897   0.0009  0.0717  1.0000  -3.0505   0.0000   0.2411
   7.500   0.8133   0.01876   0.01006   0.0034  0.0615  1.0000  -3.3651   0.0000   0.2375
   8.000   0.8533   0.01987   0.01126   0.0060  0.0538  1.0000  -3.6886   0.0000   0.2343
   8.500   0.8918   0.02118   0.01258   0.0085  0.0465  1.0000  -4.0191   0.0000   0.2312
   9.000   0.9313   0.02243   0.01400   0.0108  0.0413  1.0000  -4.3582   0.0000   0.2286
   9.500   0.9670   0.02404   0.01573   0.0134  0.0374  1.0000  -4.6869   0.0000   0.2257
  10.000   1.0004   0.02587   0.01774   0.0162  0.0347  1.0000  -5.0028   0.0000   0.2227
  10.500   1.0324   0.02779   0.01989   0.0190  0.0322  1.0000  -5.3164   0.0000   0.2199
  11.000   1.0611   0.02971   0.02200   0.0219  0.0296  1.0000  -5.6368   0.0000   0.2170
  11.500   1.0777   0.03215   0.02455   0.0259  0.0272  1.0000  -5.9104   0.0000   0.2128
  12.000   1.0934   0.03481   0.02754   0.0294  0.0258  1.0000  -6.1663   0.0000   0.2092
  12.500   1.1035   0.03824   0.03130   0.0322  0.0246  1.0000  -6.3781   0.0000   0.2061
  13.000   1.1072   0.04259   0.03599   0.0338  0.0235  1.0000  -6.5490   0.0000   0.2039
  13.500   1.1045   0.04818   0.04192   0.0336  0.0227  1.0000  -6.7031   0.0000   0.2031
  14.000   1.0942   0.05547   0.04955   0.0313  0.0220  1.0000  -6.8036   0.0000   0.2039
  14.500   1.0745   0.06504   0.05948   0.0265  0.0215  1.0000  -6.8085   0.0000   0.2067
  15.000   1.0417   0.07791   0.07273   0.0190  0.0213  1.0000  -6.6675   0.0000   0.2121
  15.500   0.9789   0.09789   0.09317   0.0068  0.0214  1.0000  -6.1801   0.0000   0.2225
  16.500   0.7569   0.17303   0.16872  -0.0311  0.0197  1.0000  -3.2274   0.0000   0.2718
  17.000   0.7623   0.18137   0.17705  -0.0350  0.0190  1.0000  -3.2212   0.0000   0.2760
  17.500   0.7605   0.19360   0.18926  -0.0404  0.0186  1.0000  -2.9670   0.0000   0.2829
  18.000   0.7653   0.20414   0.19980  -0.0452  0.0185  1.0000  -2.8005   0.0000   0.2883
  18.500   0.7694   0.21606   0.21172  -0.0510  0.0170  1.0000  -2.5372   0.0000   0.2954
  19.000   0.7792   0.22518   0.22085  -0.0558  0.0155  1.0000  -2.4310   0.0000   0.3002
  19.500   0.7914   0.23332   0.22900  -0.0602  0.0147  1.0000  -2.3656   0.0000   0.3038
  20.000   0.8048   0.24088   0.23657  -0.0643  0.0139  1.0000  -2.3269   0.0000   0.3070


