xflr5 v6.50

 Calculated polar for: NACA 6412

 1 1 Reynolds number fixed          Mach number fixed         

 xtrf =   0.010 (top)        1.000 (bottom)
 Mach =   0.000     Re =     0.175 e 6     Ncrit =   9.000

  alpha     CL        CD       CDp       Cm    Top Xtr Bot Xtr   Cpmin    Chinge    XCp    
 ------- -------- --------- --------- -------- ------- ------- -------- --------- ---------
  -3.000   0.2797   0.02080   0.00893  -0.1371  0.0100  0.0877  -1.6852   0.0000   0.7460
  -2.500   0.3328   0.01999   0.00796  -0.1367  0.0100  0.1033  -1.4497   0.0000   0.6646
  -2.000   0.3858   0.01905   0.00694  -0.1363  0.0100  0.1217  -1.2243   0.0000   0.6055
  -1.500   0.4383   0.01861   0.00651  -0.1358  0.0100  0.1487  -1.0282   0.0000   0.5609
  -1.000   0.4904   0.01828   0.00615  -0.1353  0.0100  0.1843  -0.8664   0.0000   0.5258
  -0.500   0.5423   0.01805   0.00599  -0.1347  0.0100  0.2329  -0.9045   0.0000   0.4975
   0.000   0.5937   0.01783   0.00595  -0.1341  0.0100  0.3031  -0.9448   0.0000   0.4743
   0.500   0.6412   0.01689   0.00609  -0.1330  0.0100  0.6179  -0.9839   0.0000   0.4551
   1.000   0.6885   0.01656   0.00608  -0.1306  0.0100  1.0000  -1.0232   0.0000   0.4367
   1.500   0.7383   0.01701   0.00627  -0.1297  0.0100  1.0000  -1.0655   0.0000   0.4220
   2.000   0.7871   0.01750   0.00655  -0.1286  0.0100  1.0000  -1.1085   0.0000   0.4090
   2.500   0.8348   0.01802   0.00692  -0.1273  0.0100  1.0000  -1.1510   0.0000   0.3976
   3.000   0.8813   0.01859   0.00738  -0.1259  0.0100  1.0000  -1.1958   0.0000   0.3873
   3.500   0.9262   0.01920   0.00788  -0.1242  0.0100  1.0000  -1.2400   0.0000   0.3779
   4.000   0.9683   0.01985   0.00846  -0.1221  0.0100  1.0000  -1.2844   0.0000   0.3693
   4.500   1.0088   0.02057   0.00913  -0.1197  0.0100  1.0000  -1.3293   0.0000   0.3612
   5.000   1.0483   0.02138   0.00996  -0.1173  0.0100  1.0000  -1.3756   0.0000   0.3538
   5.500   1.0865   0.02228   0.01085  -0.1149  0.0100  1.0000  -1.4225   0.0000   0.3469
   6.000   1.1231   0.02328   0.01186  -0.1123  0.0100  1.0000  -1.4718   0.0000   0.3405
   6.500   1.1582   0.02439   0.01300  -0.1097  0.0100  1.0000  -1.5231   0.0000   0.3345
   7.000   1.1912   0.02566   0.01432  -0.1069  0.0100  1.0000  -1.5923   0.0000   0.3288
   7.500   1.2226   0.02709   0.01588  -0.1042  0.0100  1.0000  -1.7446   0.0000   0.3235
   8.000   1.2518   0.02871   0.01758  -0.1014  0.0100  1.0000  -1.9139   0.0000   0.3185
   8.500   1.2791   0.03054   0.01952  -0.0986  0.0100  1.0000  -2.1013   0.0000   0.3138
   9.000   1.3043   0.03261   0.02171  -0.0958  0.0100  1.0000  -2.2890   0.0000   0.3094
   9.500   1.3269   0.03496   0.02425  -0.0931  0.0100  1.0000  -2.4959   0.0000   0.3052
  10.000   1.3475   0.03761   0.02705  -0.0905  0.0100  1.0000  -2.7137   0.0000   0.3014
  10.500   1.3655   0.04061   0.03022  -0.0881  0.0100  1.0000  -2.9277   0.0000   0.2978
  11.000   1.3812   0.04396   0.03374  -0.0859  0.0100  1.0000  -3.1378   0.0000   0.2945
  11.500   1.3943   0.04770   0.03767  -0.0838  0.0100  1.0000  -3.3432   0.0000   0.2915
  12.000   1.4057   0.05184   0.04206  -0.0821  0.0100  1.0000  -3.5439   0.0000   0.2888
  12.500   1.4154   0.05636   0.04679  -0.0807  0.0100  1.0000  -3.7457   0.0000   0.2864
  13.000   1.4229   0.06127   0.05192  -0.0796  0.0100  1.0000  -3.9741   0.0000   0.2843
  13.500   1.4287   0.06653   0.05740  -0.0787  0.0100  1.0000  -4.1965   0.0000   0.2824
  14.000   1.4330   0.07214   0.06324  -0.0781  0.0100  1.0000  -4.4145   0.0000   0.2808
  14.500   1.4363   0.07804   0.06937  -0.0778  0.0100  1.0000  -4.6283   0.0000   0.2794
  15.000   1.4384   0.08418   0.07575  -0.0778  0.0100  1.0000  -4.8378   0.0000   0.2783
  15.500   1.4395   0.09051   0.08236  -0.0780  0.0100  1.0000  -5.0391   0.0000   0.2773
  16.000   1.4392   0.09711   0.08921  -0.0785  0.0100  1.0000  -5.2356   0.0000   0.2765
  16.500   1.4381   0.10395   0.09630  -0.0794  0.0100  1.0000  -5.4268   0.0000   0.2760
  17.000   1.4372   0.11087   0.10347  -0.0805  0.0100  1.0000  -5.6165   0.0000   0.2757
  17.500   1.4358   0.11792   0.11076  -0.0820  0.0100  1.0000  -5.8012   0.0000   0.2756
  18.000   1.4332   0.12527   0.11837  -0.0839  0.0100  1.0000  -5.9739   0.0000   0.2758
  18.500   1.4303   0.13265   0.12601  -0.0860  0.0100  1.0000  -6.1403   0.0000   0.2762
  19.000   1.4270   0.14023   0.13387  -0.0886  0.0100  1.0000  -6.2989   0.0000   0.2770
  19.500   1.4228   0.14818   0.14208  -0.0917  0.0100  1.0000  -6.4407   0.0000   0.2781
  20.000   1.4182   0.15640   0.15057  -0.0953  0.0100  1.0000  -6.5685   0.0000   0.2796


