xflr5 v6.50

 Calculated polar for: NACA 6412

 1 1 Reynolds number fixed          Mach number fixed         

 xtrf =   0.200 (top)        1.000 (bottom)
 Mach =   0.000     Re =     0.175 e 6     Ncrit =   9.000

  alpha     CL        CD       CDp       Cm    Top Xtr Bot Xtr   Cpmin    Chinge    XCp    
 ------- -------- --------- --------- -------- ------- ------- -------- --------- ---------
  -3.000   0.2852   0.02002   0.00849  -0.1381  0.2000  0.0887  -1.6739   0.0000   0.7397
  -2.500   0.3390   0.01917   0.00749  -0.1378  0.2000  0.1045  -1.4373   0.0000   0.6600
  -2.000   0.3928   0.01830   0.00658  -0.1374  0.2000  0.1234  -1.2066   0.0000   0.6021
  -1.500   0.4463   0.01783   0.00613  -0.1371  0.2000  0.1510  -1.0135   0.0000   0.5581
  -1.000   0.4996   0.01740   0.00573  -0.1367  0.2000  0.1880  -0.8665   0.0000   0.5236
  -0.500   0.5528   0.01708   0.00551  -0.1363  0.2000  0.2388  -0.9053   0.0000   0.4957
   0.000   0.6055   0.01675   0.00539  -0.1360  0.2000  0.3129  -0.9440   0.0000   0.4729
   0.500   0.6510   0.01501   0.00542  -0.1336  0.2000  1.0000  -0.9816   0.0000   0.4528
   1.000   0.7038   0.01531   0.00539  -0.1330  0.2000  1.0000  -1.0259   0.0000   0.4360
   1.500   0.7557   0.01563   0.00550  -0.1324  0.2000  1.0000  -1.0743   0.0000   0.4215
   2.000   0.8069   0.01598   0.00568  -0.1316  0.2000  1.0000  -1.1226   0.0000   0.4088
   2.500   0.8574   0.01634   0.00594  -0.1308  0.2000  1.0000  -1.1726   0.0000   0.3976
   3.000   0.9072   0.01673   0.00627  -0.1299  0.2000  1.0000  -1.2247   0.0000   0.3876
   3.500   0.9561   0.01715   0.00664  -0.1288  0.2000  1.0000  -1.2767   0.0000   0.3786
   4.000   1.0041   0.01759   0.00706  -0.1276  0.2000  1.0000  -1.3283   0.0000   0.3703
   4.500   1.0510   0.01806   0.00753  -0.1263  0.2000  1.0000  -1.3794   0.0000   0.3627
   5.000   1.0957   0.01856   0.00811  -0.1245  0.2000  1.0000  -1.4292   0.0000   0.3556
   5.500   1.1390   0.01911   0.00871  -0.1226  0.2000  1.0000  -1.4820   0.0000   0.3489
   6.000   1.1818   0.01971   0.00939  -0.1207  0.2000  1.0000  -1.5350   0.0000   0.3426
   6.500   1.2235   0.02037   0.01016  -0.1186  0.2000  1.0000  -1.5903   0.0000   0.3368
   7.000   1.2642   0.02110   0.01107  -0.1165  0.2000  1.0000  -1.7240   0.0000   0.3313
   7.500   1.3038   0.02190   0.01202  -0.1144  0.2000  1.0000  -1.9150   0.0000   0.3261
   8.000   1.3420   0.02278   0.01308  -0.1121  0.2000  1.0000  -2.1295   0.0000   0.3211
   8.500   1.3788   0.02377   0.01426  -0.1097  0.2000  1.0000  -2.3473   0.0000   0.3164
   9.000   1.4145   0.02485   0.01562  -0.1073  0.2000  1.0000  -2.6070   0.0000   0.3119
   9.500   1.4485   0.02606   0.01708  -0.1049  0.2000  1.0000  -2.8713   0.0000   0.3075
  10.000   1.4808   0.02741   0.01871  -0.1023  0.2000  1.0000  -3.1374   0.0000   0.3034
  10.500   1.5116   0.02892   0.02052  -0.0997  0.2000  1.0000  -3.4056   0.0000   0.2994
  11.000   1.5405   0.03061   0.02259  -0.0971  0.2000  1.0000  -3.6713   0.0000   0.2955
  11.500   1.5673   0.03250   0.02486  -0.0944  0.2000  1.0000  -3.9689   0.0000   0.2918
  12.000   1.5921   0.03463   0.02742  -0.0917  0.2000  1.0000  -4.2780   0.0000   0.2882
  12.500   1.6012   0.03814   0.03130  -0.0880  0.1854  1.0000  -4.5179   0.0000   0.2845
  13.000   1.5583   0.04674   0.03959  -0.0825  0.1333  1.0000  -4.5346   0.0000   0.2814
  13.500   1.5206   0.05612   0.04881  -0.0792  0.1023  1.0000  -4.5566   0.0000   0.2795
  14.000   1.4940   0.06494   0.05764  -0.0773  0.0839  1.0000  -4.6154   0.0000   0.2781
  14.500   1.4708   0.07374   0.06644  -0.0762  0.0721  1.0000  -4.6834   0.0000   0.2770
  15.000   1.4621   0.08101   0.07392  -0.0755  0.0633  1.0000  -4.8115   0.0000   0.2758
  15.500   1.4544   0.08781   0.08079  -0.0744  0.0567  1.0000  -4.9346   0.0000   0.2742
  16.000   1.4545   0.09380   0.08691  -0.0738  0.0513  1.0000  -5.0991   0.0000   0.2727
  16.500   1.4626   0.09777   0.09087  -0.0714  0.0463  1.0000  -5.2894   0.0000   0.2697
  17.000   1.4689   0.10310   0.09648  -0.0711  0.0428  1.0000  -5.4679   0.0000   0.2681
  17.500   1.4722   0.10883   0.10232  -0.0714  0.0392  1.0000  -5.6535   0.0000   0.2671
  18.000   1.4811   0.11287   0.10650  -0.0698  0.0358  1.0000  -5.8351   0.0000   0.2645
  18.500   1.4804   0.11953   0.11357  -0.0708  0.0343  1.0000  -5.9509   0.0000   0.2641
  19.000   1.4752   0.12709   0.12150  -0.0727  0.0329  1.0000  -6.0623   0.0000   0.2643
  19.500   1.4655   0.13571   0.13049  -0.0757  0.0316  1.0000  -6.1557   0.0000   0.2654
  20.000   1.4495   0.14588   0.14104  -0.0802  0.0307  1.0000  -6.1871   0.0000   0.2679


