xflr5 v6.50

 Calculated polar for: NACA 6412

 1 1 Reynolds number fixed          Mach number fixed         

 xtrf =   0.100 (top)        1.000 (bottom)
 Mach =   0.000     Re =     0.175 e 6     Ncrit =   9.000

  alpha     CL        CD       CDp       Cm    Top Xtr Bot Xtr   Cpmin    Chinge    XCp    
 ------- -------- --------- --------- -------- ------- ------- -------- --------- ---------
  -3.000   0.2806   0.02064   0.00884  -0.1373  0.1000  0.0879  -1.6836   0.0000   0.7450
  -2.500   0.3339   0.01982   0.00786  -0.1369  0.1000  0.1036  -1.4476   0.0000   0.6638
  -2.000   0.3871   0.01889   0.00686  -0.1365  0.1000  0.1221  -1.2207   0.0000   0.6049
  -1.500   0.4400   0.01844   0.00644  -0.1361  0.1000  0.1491  -1.0250   0.0000   0.5604
  -1.000   0.4927   0.01805   0.00605  -0.1356  0.1000  0.1853  -0.8679   0.0000   0.5253
  -0.500   0.5451   0.01778   0.00586  -0.1352  0.1000  0.2346  -0.9063   0.0000   0.4971
   0.000   0.5971   0.01751   0.00579  -0.1347  0.1000  0.3060  -0.9470   0.0000   0.4739
   0.500   0.6437   0.01638   0.00592  -0.1332  0.1000  0.6782  -0.9857   0.0000   0.4547
   1.500   0.7441   0.01655   0.00601  -0.1306  0.1000  1.0000  -1.0692   0.0000   0.4219
   2.000   0.7940   0.01697   0.00624  -0.1297  0.1000  1.0000  -1.1129   0.0000   0.4090
   2.500   0.8431   0.01741   0.00655  -0.1286  0.1000  1.0000  -1.1563   0.0000   0.3977
   3.000   0.8912   0.01789   0.00695  -0.1275  0.1000  1.0000  -1.2018   0.0000   0.3875
   3.500   0.9381   0.01840   0.00738  -0.1261  0.1000  1.0000  -1.2474   0.0000   0.3783
   4.000   0.9838   0.01894   0.00787  -0.1246  0.1000  1.0000  -1.2930   0.0000   0.3698
   4.500   1.0267   0.01951   0.00842  -0.1225  0.1000  1.0000  -1.3397   0.0000   0.3619
   5.000   1.0687   0.02015   0.00911  -0.1204  0.1000  1.0000  -1.3857   0.0000   0.3546
   5.500   1.1098   0.02085   0.00984  -0.1183  0.1000  1.0000  -1.4343   0.0000   0.3478
   6.000   1.1498   0.02163   0.01066  -0.1161  0.1000  1.0000  -1.4897   0.0000   0.3415
   6.500   1.1886   0.02248   0.01158  -0.1138  0.1000  1.0000  -1.5571   0.0000   0.3356
   7.000   1.2260   0.02343   0.01269  -0.1114  0.1000  1.0000  -1.6494   0.0000   0.3300
   7.500   1.2619   0.02448   0.01385  -0.1089  0.1000  1.0000  -1.8212   0.0000   0.3247
   8.000   1.2964   0.02566   0.01516  -0.1064  0.1000  1.0000  -2.0202   0.0000   0.3197
   8.500   1.3291   0.02698   0.01664  -0.1039  0.1000  1.0000  -2.2242   0.0000   0.3149
   9.000   1.3599   0.02846   0.01831  -0.1012  0.1000  1.0000  -2.4406   0.0000   0.3104
   9.500   1.3891   0.03013   0.02023  -0.0986  0.1000  1.0000  -2.6882   0.0000   0.3061
  10.000   1.4163   0.03201   0.02234  -0.0960  0.1000  1.0000  -2.9323   0.0000   0.3020
  10.500   1.4410   0.03414   0.02471  -0.0934  0.1000  1.0000  -3.1743   0.0000   0.2982
  11.000   1.4635   0.03655   0.02739  -0.0909  0.1000  1.0000  -3.4139   0.0000   0.2945
  11.500   1.4836   0.03928   0.03045  -0.0884  0.1000  1.0000  -3.6474   0.0000   0.2911
  12.000   1.5010   0.04236   0.03385  -0.0861  0.1000  1.0000  -3.9049   0.0000   0.2878
  12.500   1.5153   0.04587   0.03770  -0.0838  0.1000  1.0000  -4.1664   0.0000   0.2848
  13.000   1.5259   0.04998   0.04220  -0.0817  0.1000  1.0000  -4.4098   0.0000   0.2820
  13.500   1.5216   0.05600   0.04867  -0.0793  0.1000  1.0000  -4.5645   0.0000   0.2795
  14.000   1.4940   0.06494   0.05764  -0.0773  0.0839  1.0000  -4.6155   0.0000   0.2781
  14.500   1.4708   0.07374   0.06644  -0.0762  0.0721  1.0000  -4.6834   0.0000   0.2770
  15.000   1.4621   0.08101   0.07392  -0.0755  0.0633  1.0000  -4.8115   0.0000   0.2758
  15.500   1.4544   0.08781   0.08079  -0.0744  0.0567  1.0000  -4.9346   0.0000   0.2742
  16.000   1.4545   0.09380   0.08691  -0.0738  0.0513  1.0000  -5.0991   0.0000   0.2727
  16.500   1.4626   0.09777   0.09087  -0.0714  0.0463  1.0000  -5.2894   0.0000   0.2697
  17.000   1.4689   0.10310   0.09648  -0.0711  0.0428  1.0000  -5.4679   0.0000   0.2681
  17.500   1.4722   0.10883   0.10232  -0.0714  0.0392  1.0000  -5.6535   0.0000   0.2671
  18.000   1.4811   0.11287   0.10650  -0.0698  0.0358  1.0000  -5.8351   0.0000   0.2645
  18.500   1.4804   0.11953   0.11357  -0.0708  0.0343  1.0000  -5.9509   0.0000   0.2641
  19.000   1.4752   0.12709   0.12150  -0.0727  0.0329  1.0000  -6.0623   0.0000   0.2643
  19.500   1.4655   0.13571   0.13049  -0.0757  0.0316  1.0000  -6.1557   0.0000   0.2654
  20.000   1.4495   0.14588   0.14104  -0.0802  0.0307  1.0000  -6.1871   0.0000   0.2679


