xflr5 v6.50

 Calculated polar for: NACA 6412

 1 1 Reynolds number fixed          Mach number fixed         

 xtrf =   0.500 (top)        1.000 (bottom)
 Mach =   0.000     Re =     0.262 e 6     Ncrit =   9.000

  alpha     CL        CD       CDp       Cm    Top Xtr Bot Xtr   Cpmin    Chinge    XCp    
 ------- -------- --------- --------- -------- ------- ------- -------- --------- ---------
  -3.000   0.3224   0.01461   0.00541  -0.1441  0.5000  0.0776  -1.6638   0.0000   0.7021
  -2.500   0.3782   0.01402   0.00481  -0.1441  0.5000  0.0931  -1.4032   0.0000   0.6345
  -2.000   0.4340   0.01347   0.00428  -0.1442  0.5000  0.1121  -1.1636   0.0000   0.5841
  -1.500   0.4899   0.01310   0.00394  -0.1442  0.5000  0.1399  -0.9651   0.0000   0.5452
  -1.000   0.5457   0.01280   0.00372  -0.1443  0.5000  0.1765  -0.9001   0.0000   0.5143
  -0.500   0.6013   0.01249   0.00361  -0.1444  0.5000  0.2271  -0.9409   0.0000   0.4892
   0.000   0.6568   0.01224   0.00359  -0.1445  0.5000  0.2985  -0.9848   0.0000   0.4684
   0.500   0.7095   0.01133   0.00373  -0.1444  0.5000  0.6210  -1.0274   0.0000   0.4512
   1.500   0.8173   0.01097   0.00381  -0.1430  0.5000  1.0000  -1.1177   0.0000   0.4214
   2.000   0.8725   0.01120   0.00396  -0.1430  0.5000  1.0000  -1.1654   0.0000   0.4097
   2.500   0.9275   0.01145   0.00419  -0.1429  0.5000  1.0000  -1.2142   0.0000   0.3993
   3.000   0.9823   0.01174   0.00445  -0.1429  0.5000  1.0000  -1.2654   0.0000   0.3900
   3.500   1.0371   0.01205   0.00477  -0.1429  0.5000  1.0000  -1.3172   0.0000   0.3817
   4.000   1.0919   0.01241   0.00516  -0.1429  0.5000  1.0000  -1.3724   0.0000   0.3742
   4.500   1.1469   0.01282   0.00566  -0.1430  0.5000  1.0000  -1.4293   0.0000   0.3674
   5.000   1.2020   0.01330   0.00620  -0.1433  0.5000  1.0000  -1.4890   0.0000   0.3612
   5.500   1.2576   0.01386   0.00686  -0.1436  0.5000  1.0000  -1.5533   0.0000   0.3556
   6.000   1.3136   0.01454   0.00765  -0.1442  0.5000  1.0000  -1.6225   0.0000   0.3505
   6.500   1.3697   0.01536   0.00869  -0.1449  0.5000  1.0000  -1.8069   0.0000   0.3458
   7.000   1.4185   0.01585   0.00927  -0.1438  0.4892  1.0000  -2.0351   0.0000   0.3407
   7.500   1.4687   0.01658   0.01000  -0.1432  0.4766  1.0000  -2.2831   0.0000   0.3360
   8.000   1.5058   0.01675   0.01024  -0.1397  0.4552  1.0000  -2.5388   0.0000   0.3305
   8.500   1.5423   0.01718   0.01081  -0.1364  0.4360  1.0000  -2.8140   0.0000   0.3253
   9.000   1.5785   0.01779   0.01146  -0.1331  0.4178  1.0000  -3.0966   0.0000   0.3204
   9.500   1.6053   0.01842   0.01216  -0.1281  0.3971  1.0000  -3.3584   0.0000   0.3150
  10.000   1.6270   0.01929   0.01318  -0.1225  0.3716  1.0000  -3.6082   0.0000   0.3096
  10.500   1.6433   0.02068   0.01457  -0.1166  0.3407  1.0000  -3.8590   0.0000   0.3044
  11.000   1.6517   0.02279   0.01662  -0.1102  0.2964  1.0000  -4.1137   0.0000   0.2992
  11.500   1.6414   0.02648   0.02004  -0.1025  0.2378  1.0000  -4.2939   0.0000   0.2940
  12.000   1.6162   0.03203   0.02524  -0.0949  0.1717  1.0000  -4.4071   0.0000   0.2893
  12.500   1.5856   0.03898   0.03190  -0.0888  0.1180  1.0000  -4.4884   0.0000   0.2855
  13.000   1.5601   0.04636   0.03916  -0.0846  0.0856  1.0000  -4.5807   0.0000   0.2827
  13.500   1.5417   0.05379   0.04664  -0.0819  0.0685  1.0000  -4.6940   0.0000   0.2805
  14.000   1.5210   0.06201   0.05493  -0.0801  0.0585  1.0000  -4.7879   0.0000   0.2789
  14.500   1.5109   0.06924   0.06237  -0.0790  0.0517  1.0000  -4.9266   0.0000   0.2775
  15.000   1.4910   0.07789   0.07114  -0.0782  0.0465  1.0000  -5.0079   0.0000   0.2765
  15.500   1.4873   0.08470   0.07817  -0.0779  0.0425  1.0000  -5.1694   0.0000   0.2753
  16.000   1.4791   0.09204   0.08562  -0.0778  0.0389  1.0000  -5.3113   0.0000   0.2745
  16.500   1.4727   0.09876   0.09245  -0.0773  0.0355  1.0000  -5.4464   0.0000   0.2732
  17.000   1.4740   0.10512   0.09903  -0.0778  0.0327  1.0000  -5.6300   0.0000   0.2723
  17.500   1.4748   0.11138   0.10543  -0.0783  0.0303  1.0000  -5.8099   0.0000   0.2715
  18.000   1.4762   0.11689   0.11100  -0.0781  0.0279  1.0000  -5.9791   0.0000   0.2701
  18.500   1.4810   0.12174   0.11610  -0.0775  0.0263  1.0000  -6.1416   0.0000   0.2683
  19.000   1.4825   0.12796   0.12259  -0.0788  0.0253  1.0000  -6.3052   0.0000   0.2679
  19.500   1.4827   0.13448   0.12939  -0.0804  0.0242  1.0000  -6.5017   0.0000   0.2677
  20.000   1.4786   0.14202   0.13721  -0.0831  0.0231  1.0000  -6.6578   0.0000   0.2684


