xflr5 v6.50

 Calculated polar for: NACA 6412

 1 1 Reynolds number fixed          Mach number fixed         

 xtrf =   0.700 (top)        1.000 (bottom)
 Mach =   0.000     Re =     0.175 e 6     Ncrit =   9.000

  alpha     CL        CD       CDp       Cm    Top Xtr Bot Xtr   Cpmin    Chinge    XCp    
 ------- -------- --------- --------- -------- ------- ------- -------- --------- ---------
  -3.000   0.3351   0.01648   0.00788  -0.1477  0.7000  0.0953  -1.5556   0.0000   0.6957
  -2.500   0.3919   0.01542   0.00674  -0.1479  0.7000  0.1117  -1.3252   0.0000   0.6308
  -2.000   0.4489   0.01477   0.00608  -0.1482  0.7000  0.1355  -1.1034   0.0000   0.5822
  -1.500   0.5057   0.01411   0.00556  -0.1486  0.7000  0.1663  -0.9175   0.0000   0.5449
  -1.000   0.5631   0.01374   0.00532  -0.1491  0.7000  0.2105  -0.9020   0.0000   0.5150
  -0.500   0.6206   0.01346   0.00529  -0.1499  0.7000  0.2722  -0.9432   0.0000   0.4908
   0.000   0.6778   0.01317   0.00545  -0.1508  0.7000  0.3776  -0.9851   0.0000   0.4711
   0.500   0.7324   0.01226   0.00593  -0.1504  0.7000  1.0000  -1.0248   0.0000   0.4535
   1.000   0.7897   0.01259   0.00585  -0.1505  0.6818  1.0000  -1.0715   0.0000   0.4380
   1.500   0.8418   0.01294   0.00601  -0.1498  0.6626  1.0000  -1.1157   0.0000   0.4247
   2.000   0.8957   0.01340   0.00625  -0.1494  0.6453  1.0000  -1.1615   0.0000   0.4129
   2.500   0.9500   0.01383   0.00652  -0.1492  0.6300  1.0000  -1.2115   0.0000   0.4025
   3.000   1.0025   0.01441   0.00700  -0.1487  0.6156  1.0000  -1.2595   0.0000   0.3932
   3.500   1.0558   0.01488   0.00735  -0.1483  0.6018  1.0000  -1.3125   0.0000   0.3847
   4.000   1.1088   0.01558   0.00800  -0.1481  0.5899  1.0000  -1.3652   0.0000   0.3772
   4.500   1.1596   0.01610   0.00858  -0.1474  0.5770  1.0000  -1.4211   0.0000   0.3700
   5.000   1.2157   0.01691   0.00926  -0.1477  0.5657  1.0000  -1.4832   0.0000   0.3638
   5.500   1.2618   0.01751   0.01004  -0.1463  0.5541  1.0000  -1.5409   0.0000   0.3575
   6.000   1.3141   0.01812   0.01064  -0.1458  0.5429  1.0000  -1.6104   0.0000   0.3519
   6.500   1.3636   0.01902   0.01169  -0.1451  0.5315  1.0000  -1.7818   0.0000   0.3466
   7.000   1.4104   0.01966   0.01248  -0.1437  0.5192  1.0000  -1.9986   0.0000   0.3413
   7.500   1.4644   0.02055   0.01334  -0.1437  0.5068  1.0000  -2.2535   0.0000   0.3368
   8.000   1.5034   0.02110   0.01422  -0.1409  0.4925  1.0000  -2.5013   0.0000   0.3316
   8.500   1.5437   0.02119   0.01430  -0.1379  0.4693  1.0000  -2.7900   0.0000   0.3264
   9.000   1.5846   0.02150   0.01458  -0.1352  0.4482  1.0000  -3.0878   0.0000   0.3215
   9.500   1.6133   0.02193   0.01520  -0.1305  0.4279  1.0000  -3.3555   0.0000   0.3162
  10.000   1.6352   0.02259   0.01612  -0.1247  0.4062  1.0000  -3.6056   0.0000   0.3107
  10.500   1.6495   0.02347   0.01713  -0.1179  0.3811  1.0000  -3.8448   0.0000   0.3050
  11.000   1.6561   0.02491   0.01863  -0.1105  0.3488  1.0000  -4.0929   0.0000   0.2993
  11.500   1.6551   0.02732   0.02103  -0.1032  0.3074  1.0000  -4.3107   0.0000   0.2940
  12.000   1.6375   0.03148   0.02499  -0.0954  0.2504  1.0000  -4.4579   0.0000   0.2889
  12.500   1.6012   0.03814   0.03130  -0.0880  0.1854  1.0000  -4.5179   0.0000   0.2845
  13.000   1.5583   0.04674   0.03959  -0.0825  0.1333  1.0000  -4.5346   0.0000   0.2814
  13.500   1.5206   0.05612   0.04881  -0.0792  0.1023  1.0000  -4.5566   0.0000   0.2795
  14.000   1.4940   0.06494   0.05764  -0.0773  0.0839  1.0000  -4.6154   0.0000   0.2781
  14.500   1.4708   0.07374   0.06644  -0.0762  0.0721  1.0000  -4.6834   0.0000   0.2770
  15.000   1.4621   0.08101   0.07392  -0.0755  0.0633  1.0000  -4.8115   0.0000   0.2758
  15.500   1.4544   0.08781   0.08079  -0.0744  0.0567  1.0000  -4.9346   0.0000   0.2742
  16.000   1.4545   0.09380   0.08691  -0.0738  0.0513  1.0000  -5.0991   0.0000   0.2727
  16.500   1.4626   0.09777   0.09087  -0.0714  0.0463  1.0000  -5.2894   0.0000   0.2697
  17.000   1.4689   0.10310   0.09648  -0.0711  0.0428  1.0000  -5.4679   0.0000   0.2681
  17.500   1.4722   0.10883   0.10232  -0.0714  0.0392  1.0000  -5.6535   0.0000   0.2671
  18.000   1.4811   0.11287   0.10650  -0.0698  0.0358  1.0000  -5.8351   0.0000   0.2645
  18.500   1.4804   0.11953   0.11357  -0.0708  0.0343  1.0000  -5.9509   0.0000   0.2641
  19.000   1.4752   0.12709   0.12150  -0.0727  0.0329  1.0000  -6.0623   0.0000   0.2643
  19.500   1.4655   0.13571   0.13049  -0.0757  0.0316  1.0000  -6.1557   0.0000   0.2654
  20.000   1.4495   0.14588   0.14104  -0.0802  0.0307  1.0000  -6.1871   0.0000   0.2679


