xflr5 v6.50

 Calculated polar for: NACA 6412

 1 1 Reynolds number fixed          Mach number fixed         

 xtrf =   0.600 (top)        1.000 (bottom)
 Mach =   0.000     Re =     0.262 e 6     Ncrit =   9.000

  alpha     CL        CD       CDp       Cm    Top Xtr Bot Xtr   Cpmin    Chinge    XCp    
 ------- -------- --------- --------- -------- ------- ------- -------- --------- ---------
  -3.000   0.3355   0.01386   0.00528  -0.1466  0.6000  0.0790  -1.6330   0.0000   0.6921
  -2.500   0.3918   0.01326   0.00469  -0.1468  0.6000  0.0949  -1.3724   0.0000   0.6280
  -2.000   0.4483   0.01272   0.00417  -0.1469  0.6000  0.1148  -1.1386   0.0000   0.5798
  -1.500   0.5047   0.01229   0.00384  -0.1472  0.6000  0.1438  -0.9401   0.0000   0.5425
  -1.000   0.5611   0.01198   0.00363  -0.1474  0.6000  0.1824  -0.9063   0.0000   0.5126
  -0.500   0.6176   0.01173   0.00357  -0.1477  0.6000  0.2345  -0.9479   0.0000   0.4883
   0.000   0.6740   0.01148   0.00358  -0.1480  0.6000  0.3100  -0.9919   0.0000   0.4681
   0.500   0.7221   0.01026   0.00381  -0.1467  0.6000  0.7637  -1.0316   0.0000   0.4510
   1.500   0.8395   0.01047   0.00403  -0.1477  0.6000  1.0000  -1.1257   0.0000   0.4225
   2.000   0.8974   0.01090   0.00438  -0.1484  0.6000  1.0000  -1.1727   0.0000   0.4113
   2.500   0.9535   0.01140   0.00480  -0.1487  0.5923  1.0000  -1.2223   0.0000   0.4013
   3.000   1.0059   0.01175   0.00508  -0.1482  0.5781  1.0000  -1.2717   0.0000   0.3920
   3.500   1.0607   0.01233   0.00547  -0.1482  0.5653  1.0000  -1.3251   0.0000   0.3838
   4.000   1.1120   0.01269   0.00588  -0.1475  0.5541  1.0000  -1.3779   0.0000   0.3761
   4.500   1.1649   0.01317   0.00632  -0.1471  0.5429  1.0000  -1.4354   0.0000   0.3691
   5.000   1.2176   0.01375   0.00689  -0.1469  0.5321  1.0000  -1.4946   0.0000   0.3627
   5.500   1.2683   0.01419   0.00741  -0.1461  0.5217  1.0000  -1.5567   0.0000   0.3567
   6.000   1.3210   0.01481   0.00795  -0.1458  0.5104  1.0000  -1.6265   0.0000   0.3512
   6.500   1.3701   0.01538   0.00870  -0.1449  0.5004  1.0000  -1.8074   0.0000   0.3458
   7.000   1.4185   0.01585   0.00927  -0.1438  0.4892  1.0000  -2.0351   0.0000   0.3407
   7.500   1.4687   0.01658   0.01000  -0.1432  0.4766  1.0000  -2.2831   0.0000   0.3360
   8.000   1.5058   0.01675   0.01024  -0.1397  0.4552  1.0000  -2.5388   0.0000   0.3305
   8.500   1.5423   0.01718   0.01081  -0.1364  0.4360  1.0000  -2.8140   0.0000   0.3253
   9.000   1.5785   0.01779   0.01146  -0.1331  0.4178  1.0000  -3.0966   0.0000   0.3204
   9.500   1.6053   0.01842   0.01216  -0.1281  0.3971  1.0000  -3.3584   0.0000   0.3150
  10.000   1.6270   0.01929   0.01318  -0.1225  0.3716  1.0000  -3.6082   0.0000   0.3096
  10.500   1.6433   0.02068   0.01457  -0.1166  0.3407  1.0000  -3.8590   0.0000   0.3044
  11.000   1.6517   0.02279   0.01662  -0.1102  0.2964  1.0000  -4.1137   0.0000   0.2992
  11.500   1.6414   0.02648   0.02004  -0.1025  0.2378  1.0000  -4.2939   0.0000   0.2940
  12.000   1.6162   0.03203   0.02524  -0.0949  0.1717  1.0000  -4.4071   0.0000   0.2893
  12.500   1.5856   0.03898   0.03190  -0.0888  0.1180  1.0000  -4.4884   0.0000   0.2855
  13.000   1.5601   0.04636   0.03916  -0.0846  0.0856  1.0000  -4.5807   0.0000   0.2827
  13.500   1.5417   0.05379   0.04664  -0.0819  0.0685  1.0000  -4.6940   0.0000   0.2805
  14.000   1.5210   0.06201   0.05493  -0.0801  0.0585  1.0000  -4.7879   0.0000   0.2789
  14.500   1.5109   0.06924   0.06237  -0.0790  0.0517  1.0000  -4.9266   0.0000   0.2775
  15.000   1.4910   0.07789   0.07114  -0.0782  0.0465  1.0000  -5.0079   0.0000   0.2765
  15.500   1.4873   0.08470   0.07817  -0.0779  0.0425  1.0000  -5.1694   0.0000   0.2753
  16.000   1.4791   0.09204   0.08562  -0.0778  0.0389  1.0000  -5.3113   0.0000   0.2745
  16.500   1.4727   0.09876   0.09245  -0.0773  0.0355  1.0000  -5.4464   0.0000   0.2732
  17.000   1.4740   0.10512   0.09903  -0.0778  0.0327  1.0000  -5.6300   0.0000   0.2723
  17.500   1.4748   0.11138   0.10543  -0.0783  0.0303  1.0000  -5.8099   0.0000   0.2715
  18.000   1.4762   0.11689   0.11100  -0.0781  0.0279  1.0000  -5.9791   0.0000   0.2701
  18.500   1.4810   0.12174   0.11610  -0.0775  0.0263  1.0000  -6.1416   0.0000   0.2683
  19.000   1.4825   0.12796   0.12259  -0.0788  0.0253  1.0000  -6.3052   0.0000   0.2679
  19.500   1.4827   0.13448   0.12939  -0.0804  0.0242  1.0000  -6.5017   0.0000   0.2677
  20.000   1.4786   0.14202   0.13721  -0.0831  0.0231  1.0000  -6.6578   0.0000   0.2684


