xflr5 v6.50

 Calculated polar for: NACA 6412

 1 1 Reynolds number fixed          Mach number fixed         

 xtrf =   0.010 (top)        1.000 (bottom)
 Mach =   0.000     Re =     0.262 e 6     Ncrit =   9.000

  alpha     CL        CD       CDp       Cm    Top Xtr Bot Xtr   Cpmin    Chinge    XCp    
 ------- -------- --------- --------- -------- ------- ------- -------- --------- ---------
  -3.000   0.2896   0.01758   0.00657  -0.1387  0.0100  0.0742  -1.7444   0.0000   0.7346
  -2.500   0.3432   0.01726   0.00614  -0.1383  0.0100  0.0871  -1.4844   0.0000   0.6567
  -2.000   0.3963   0.01664   0.00547  -0.1379  0.0100  0.1050  -1.2420   0.0000   0.6003
  -1.500   0.4493   0.01637   0.00522  -0.1375  0.0100  0.1296  -1.0392   0.0000   0.5571
  -1.000   0.5022   0.01618   0.00502  -0.1371  0.0100  0.1619  -0.8721   0.0000   0.5230
  -0.500   0.5546   0.01610   0.00501  -0.1367  0.0100  0.2065  -0.9107   0.0000   0.4955
   0.000   0.6068   0.01608   0.00507  -0.1362  0.0100  0.2665  -0.9519   0.0000   0.4728
   1.000   0.7026   0.01479   0.00544  -0.1332  0.0100  1.0000  -1.0312   0.0000   0.4366
   1.500   0.7531   0.01521   0.00563  -0.1324  0.0100  1.0000  -1.0745   0.0000   0.4221
   2.000   0.8026   0.01566   0.00591  -0.1314  0.0100  1.0000  -1.1180   0.0000   0.4094
   2.500   0.8512   0.01614   0.00624  -0.1302  0.0100  1.0000  -1.1613   0.0000   0.3981
   3.000   0.8985   0.01666   0.00667  -0.1289  0.0100  1.0000  -1.2071   0.0000   0.3880
   3.500   0.9445   0.01722   0.00713  -0.1274  0.0100  1.0000  -1.2521   0.0000   0.3787
   4.000   0.9876   0.01781   0.00765  -0.1254  0.0100  1.0000  -1.2980   0.0000   0.3702
   4.500   1.0292   0.01847   0.00826  -0.1231  0.0100  1.0000  -1.3438   0.0000   0.3622
   5.000   1.0699   0.01920   0.00900  -0.1208  0.0100  1.0000  -1.3918   0.0000   0.3549
   5.500   1.1092   0.02002   0.00980  -0.1185  0.0100  1.0000  -1.4403   0.0000   0.3481
   6.000   1.1473   0.02092   0.01070  -0.1160  0.0100  1.0000  -1.4914   0.0000   0.3417
   6.500   1.1836   0.02194   0.01173  -0.1134  0.0100  1.0000  -1.5447   0.0000   0.3357
   7.000   1.2183   0.02308   0.01295  -0.1108  0.0100  1.0000  -1.6395   0.0000   0.3301
   7.500   1.2513   0.02436   0.01428  -0.1081  0.0100  1.0000  -1.8067   0.0000   0.3247
   8.000   1.2825   0.02581   0.01580  -0.1054  0.0100  1.0000  -1.9915   0.0000   0.3197
   8.500   1.3115   0.02745   0.01752  -0.1026  0.0100  1.0000  -2.1865   0.0000   0.3150
   9.000   1.3385   0.02932   0.01948  -0.0998  0.0100  1.0000  -2.3842   0.0000   0.3105
   9.500   1.3635   0.03143   0.02175  -0.0971  0.0100  1.0000  -2.6184   0.0000   0.3063
  10.000   1.3859   0.03382   0.02426  -0.0944  0.0100  1.0000  -2.8469   0.0000   0.3023
  10.500   1.4060   0.03654   0.02711  -0.0919  0.0100  1.0000  -3.0732   0.0000   0.2986
  11.000   1.4239   0.03958   0.03030  -0.0895  0.0100  1.0000  -3.2973   0.0000   0.2952
  11.500   1.4392   0.04300   0.03388  -0.0873  0.0100  1.0000  -3.5165   0.0000   0.2920
  12.000   1.4521   0.04682   0.03791  -0.0853  0.0100  1.0000  -3.7288   0.0000   0.2892
  12.500   1.4633   0.05103   0.04230  -0.0836  0.0100  1.0000  -3.9788   0.0000   0.2866
  13.000   1.4725   0.05566   0.04711  -0.0822  0.0100  1.0000  -4.2231   0.0000   0.2842
  13.500   1.4795   0.06067   0.05233  -0.0811  0.0100  1.0000  -4.4611   0.0000   0.2822
  14.000   1.4845   0.06602   0.05788  -0.0802  0.0100  1.0000  -4.6920   0.0000   0.2803
  14.500   1.4880   0.07174   0.06380  -0.0797  0.0100  1.0000  -4.9174   0.0000   0.2787
  15.000   1.4900   0.07779   0.07009  -0.0794  0.0100  1.0000  -5.1331   0.0000   0.2774
  15.500   1.4909   0.08408   0.07660  -0.0794  0.0100  1.0000  -5.3471   0.0000   0.2762
  16.000   1.4910   0.09053   0.08327  -0.0796  0.0100  1.0000  -5.5572   0.0000   0.2752
  16.500   1.4903   0.09708   0.09004  -0.0800  0.0100  1.0000  -5.7629   0.0000   0.2744
  17.000   1.4883   0.10400   0.09718  -0.0808  0.0100  1.0000  -5.9589   0.0000   0.2738
  17.500   1.4857   0.11110   0.10450  -0.0819  0.0100  1.0000  -6.1491   0.0000   0.2735
  18.000   1.4840   0.11807   0.11172  -0.0833  0.0100  1.0000  -6.3441   0.0000   0.2732
  18.500   1.4807   0.12541   0.11929  -0.0851  0.0100  1.0000  -6.5229   0.0000   0.2734
  19.000   1.4766   0.13291   0.12702  -0.0872  0.0100  1.0000  -6.6903   0.0000   0.2737
  19.500   1.4732   0.14030   0.13464  -0.0897  0.0100  1.0000  -6.8569   0.0000   0.2742
  20.000   1.4682   0.14820   0.14277  -0.0926  0.0100  1.0000  -7.0018   0.0000   0.2752


