xflr5 v6.50

 Calculated polar for: NACA 6412

 1 1 Reynolds number fixed          Mach number fixed         

 xtrf =   0.300 (top)        1.000 (bottom)
 Mach =   0.000     Re =     0.350 e 6     Ncrit =   9.000

  alpha     CL        CD       CDp       Cm    Top Xtr Bot Xtr   Cpmin    Chinge    XCp    
 ------- -------- --------- --------- -------- ------- ------- -------- --------- ---------
  -3.000   0.3093   0.01464   0.00498  -0.1420  0.3000  0.0685  -1.7305   0.0000   0.7144
  -2.500   0.3644   0.01414   0.00444  -0.1419  0.3000  0.0814  -1.4651   0.0000   0.6428
  -2.000   0.4195   0.01379   0.00408  -0.1418  0.3000  0.0991  -1.2088   0.0000   0.5900
  -1.500   0.4745   0.01349   0.00380  -0.1417  0.3000  0.1227  -1.0066   0.0000   0.5495
  -1.000   0.5294   0.01331   0.00366  -0.1416  0.3000  0.1554  -0.9041   0.0000   0.5174
  -0.500   0.5842   0.01314   0.00361  -0.1415  0.3000  0.1991  -0.9454   0.0000   0.4913
   0.000   0.6388   0.01299   0.00363  -0.1414  0.3000  0.2575  -0.9869   0.0000   0.4698
   0.500   0.6931   0.01280   0.00369  -0.1414  0.3000  0.3497  -1.0290   0.0000   0.4517
   1.500   0.7949   0.01170   0.00396  -0.1394  0.3000  1.0000  -1.1153   0.0000   0.4217
   2.000   0.8484   0.01193   0.00409  -0.1390  0.3000  1.0000  -1.1600   0.0000   0.4096
   2.500   0.9015   0.01217   0.00427  -0.1386  0.3000  1.0000  -1.2068   0.0000   0.3988
   3.000   0.9540   0.01244   0.00451  -0.1381  0.3000  1.0000  -1.2548   0.0000   0.3892
   3.500   1.0061   0.01271   0.00476  -0.1375  0.3000  1.0000  -1.3055   0.0000   0.3805
   4.000   1.0575   0.01300   0.00504  -0.1369  0.3000  1.0000  -1.3573   0.0000   0.3726
   4.500   1.1083   0.01331   0.00541  -0.1361  0.3000  1.0000  -1.4113   0.0000   0.3654
   5.000   1.1584   0.01364   0.00577  -0.1353  0.3000  1.0000  -1.4677   0.0000   0.3587
   5.500   1.2076   0.01399   0.00618  -0.1343  0.3000  1.0000  -1.5263   0.0000   0.3524
   6.000   1.2552   0.01435   0.00662  -0.1330  0.3000  1.0000  -1.5880   0.0000   0.3465
   6.500   1.3011   0.01475   0.00715  -0.1314  0.3000  1.0000  -1.6935   0.0000   0.3408
   7.000   1.3466   0.01519   0.00771  -0.1298  0.3000  1.0000  -1.8934   0.0000   0.3355
   7.500   1.3915   0.01566   0.00832  -0.1282  0.3000  1.0000  -2.1238   0.0000   0.3305
   8.000   1.4358   0.01617   0.00898  -0.1265  0.3000  1.0000  -2.3608   0.0000   0.3257
   8.500   1.4792   0.01674   0.00976  -0.1248  0.3000  1.0000  -2.6501   0.0000   0.3212
   9.000   1.5216   0.01735   0.01057  -0.1229  0.3000  1.0000  -2.9438   0.0000   0.3168
   9.500   1.5632   0.01802   0.01147  -0.1210  0.3000  1.0000  -3.2445   0.0000   0.3126
  10.000   1.6036   0.01876   0.01246  -0.1190  0.3000  1.0000  -3.5508   0.0000   0.3085
  10.500   1.6429   0.01958   0.01360  -0.1168  0.3000  1.0000  -3.8769   0.0000   0.3045
  11.000   1.6417   0.02259   0.01632  -0.1096  0.2430  1.0000  -4.0940   0.0000   0.2992
  12.000   1.6071   0.03250   0.02558  -0.0952  0.1205  1.0000  -4.3880   0.0000   0.2898
  12.500   1.5903   0.03841   0.03135  -0.0901  0.0842  1.0000  -4.5285   0.0000   0.2862
  13.000   1.5773   0.04456   0.03749  -0.0864  0.0643  1.0000  -4.6799   0.0000   0.2832
  13.500   1.5669   0.05103   0.04406  -0.0837  0.0533  1.0000  -4.8363   0.0000   0.2808
  14.000   1.5520   0.05847   0.05164  -0.0818  0.0461  1.0000  -4.9617   0.0000   0.2790
  14.500   1.5460   0.06509   0.05845  -0.0806  0.0412  1.0000  -5.1330   0.0000   0.2773
  15.000   1.5233   0.07409   0.06759  -0.0797  0.0368  1.0000  -5.2099   0.0000   0.2764
  15.500   1.5211   0.08069   0.07439  -0.0794  0.0341  1.0000  -5.3951   0.0000   0.2751
  16.000   1.5166   0.08768   0.08156  -0.0794  0.0312  1.0000  -5.5704   0.0000   0.2742
  16.500   1.5041   0.09572   0.08972  -0.0797  0.0287  1.0000  -5.6932   0.0000   0.2737
  17.000   1.4905   0.10373   0.09788  -0.0798  0.0266  1.0000  -5.7849   0.0000   0.2731
  17.500   1.4918   0.11006   0.10443  -0.0804  0.0253  1.0000  -5.9725   0.0000   0.2722
  18.000   1.4912   0.11667   0.11125  -0.0813  0.0238  1.0000  -6.1450   0.0000   0.2716
  18.500   1.4914   0.12310   0.11784  -0.0824  0.0224  1.0000  -6.3218   0.0000   0.2711
  19.000   1.4900   0.12981   0.12470  -0.0839  0.0213  1.0000  -6.4873   0.0000   0.2709
  19.500   1.4894   0.13596   0.13098  -0.0851  0.0200  1.0000  -6.6864   0.0000   0.2705
  20.000   1.4863   0.14178   0.13705  -0.0854  0.0187  1.0000  -6.8367   0.0000   0.2695


