xflr5 v6.50

 Calculated polar for: NACA 6412

 1 1 Reynolds number fixed          Mach number fixed         

 xtrf =   0.200 (top)        1.000 (bottom)
 Mach =   0.000     Re =     0.262 e 6     Ncrit =   9.000

  alpha     CL        CD       CDp       Cm    Top Xtr Bot Xtr   Cpmin    Chinge    XCp    
 ------- -------- --------- --------- -------- ------- ------- -------- --------- ---------
  -3.000   0.2953   0.01692   0.00625  -0.1396  0.2000  0.0749  -1.7302   0.0000   0.7284
  -2.500   0.3495   0.01643   0.00567  -0.1394  0.2000  0.0888  -1.4717   0.0000   0.6524
  -2.000   0.4037   0.01587   0.00512  -0.1391  0.2000  0.1067  -1.2233   0.0000   0.5969
  -1.500   0.4577   0.01558   0.00485  -0.1389  0.2000  0.1319  -1.0221   0.0000   0.5544
  -1.000   0.5116   0.01530   0.00461  -0.1386  0.2000  0.1654  -0.8745   0.0000   0.5210
  -0.500   0.5653   0.01514   0.00454  -0.1384  0.2000  0.2116  -0.9138   0.0000   0.4939
   0.000   0.6187   0.01498   0.00454  -0.1381  0.2000  0.2745  -0.9531   0.0000   0.4716
   0.500   0.6718   0.01468   0.00460  -0.1380  0.2000  0.3944  -0.9942   0.0000   0.4531
   1.000   0.7181   0.01355   0.00475  -0.1357  0.2000  1.0000  -1.0334   0.0000   0.4360
   1.500   0.7706   0.01383   0.00486  -0.1352  0.2000  1.0000  -1.0775   0.0000   0.4217
   2.000   0.8224   0.01414   0.00504  -0.1345  0.2000  1.0000  -1.1296   0.0000   0.4093
   2.500   0.8738   0.01447   0.00526  -0.1338  0.2000  1.0000  -1.1825   0.0000   0.3982
   3.000   0.9244   0.01481   0.00556  -0.1330  0.2000  1.0000  -1.2354   0.0000   0.3884
   3.500   0.9742   0.01518   0.00588  -0.1321  0.2000  1.0000  -1.2881   0.0000   0.3794
   4.000   1.0230   0.01557   0.00625  -0.1310  0.2000  1.0000  -1.3405   0.0000   0.3713
   4.500   1.0710   0.01599   0.00667  -0.1298  0.2000  1.0000  -1.3926   0.0000   0.3638
   5.000   1.1168   0.01643   0.00717  -0.1282  0.2000  1.0000  -1.4469   0.0000   0.3567
   5.500   1.1612   0.01690   0.00769  -0.1264  0.2000  1.0000  -1.5013   0.0000   0.3501
   6.000   1.2051   0.01743   0.00828  -0.1246  0.2000  1.0000  -1.5557   0.0000   0.3439
   6.500   1.2481   0.01801   0.00894  -0.1227  0.2000  1.0000  -1.6117   0.0000   0.3381
   7.000   1.2903   0.01864   0.00972  -0.1208  0.2000  1.0000  -1.7764   0.0000   0.3327
   7.500   1.3315   0.01932   0.01053  -0.1187  0.2000  1.0000  -1.9829   0.0000   0.3275
   8.000   1.3713   0.02009   0.01144  -0.1166  0.2000  1.0000  -2.2040   0.0000   0.3226
   8.500   1.4101   0.02093   0.01245  -0.1144  0.2000  1.0000  -2.4411   0.0000   0.3179
   9.000   1.4474   0.02187   0.01362  -0.1121  0.2000  1.0000  -2.7156   0.0000   0.3134
   9.500   1.4837   0.02290   0.01487  -0.1098  0.2000  1.0000  -2.9915   0.0000   0.3091
  10.000   1.5185   0.02405   0.01626  -0.1074  0.2000  1.0000  -3.2707   0.0000   0.3050
  10.500   1.5513   0.02535   0.01782  -0.1048  0.2000  1.0000  -3.5509   0.0000   0.3010
  11.000   1.5827   0.02679   0.01959  -0.1023  0.2000  1.0000  -3.8455   0.0000   0.2971
  11.500   1.6124   0.02842   0.02155  -0.0997  0.2000  1.0000  -4.1781   0.0000   0.2933
  12.000   1.6162   0.03203   0.02524  -0.0949  0.1717  1.0000  -4.4071   0.0000   0.2893
  12.500   1.5856   0.03898   0.03190  -0.0888  0.1180  1.0000  -4.4884   0.0000   0.2855
  13.000   1.5601   0.04636   0.03916  -0.0846  0.0856  1.0000  -4.5807   0.0000   0.2827
  13.500   1.5417   0.05379   0.04664  -0.0819  0.0685  1.0000  -4.6940   0.0000   0.2805
  14.000   1.5210   0.06201   0.05493  -0.0801  0.0585  1.0000  -4.7879   0.0000   0.2789
  14.500   1.5109   0.06924   0.06237  -0.0790  0.0517  1.0000  -4.9266   0.0000   0.2775
  15.000   1.4910   0.07789   0.07114  -0.0782  0.0465  1.0000  -5.0079   0.0000   0.2765
  15.500   1.4873   0.08470   0.07817  -0.0779  0.0425  1.0000  -5.1694   0.0000   0.2753
  16.000   1.4791   0.09204   0.08562  -0.0778  0.0389  1.0000  -5.3113   0.0000   0.2745
  16.500   1.4727   0.09876   0.09245  -0.0773  0.0355  1.0000  -5.4464   0.0000   0.2732
  17.000   1.4740   0.10512   0.09903  -0.0778  0.0327  1.0000  -5.6300   0.0000   0.2723
  17.500   1.4748   0.11138   0.10543  -0.0783  0.0303  1.0000  -5.8099   0.0000   0.2715
  18.000   1.4762   0.11689   0.11100  -0.0781  0.0279  1.0000  -5.9791   0.0000   0.2701
  18.500   1.4810   0.12174   0.11610  -0.0775  0.0263  1.0000  -6.1416   0.0000   0.2683
  19.000   1.4825   0.12796   0.12259  -0.0788  0.0253  1.0000  -6.3052   0.0000   0.2679
  19.500   1.4827   0.13448   0.12939  -0.0804  0.0242  1.0000  -6.5017   0.0000   0.2677
  20.000   1.4786   0.14202   0.13721  -0.0831  0.0231  1.0000  -6.6578   0.0000   0.2684


