xflr5 v6.50

 Calculated polar for: NACA 6412

 1 1 Reynolds number fixed          Mach number fixed         

 xtrf =   0.400 (top)        1.000 (bottom)
 Mach =   0.000     Re =     0.175 e 6     Ncrit =   9.000

  alpha     CL        CD       CDp       Cm    Top Xtr Bot Xtr   Cpmin    Chinge    XCp    
 ------- -------- --------- --------- -------- ------- ------- -------- --------- ---------
  -3.000   0.3009   0.01846   0.00789  -0.1406  0.4000  0.0908  -1.6345   0.0000   0.7225
  -2.500   0.3558   0.01751   0.00681  -0.1404  0.4000  0.1068  -1.3999   0.0000   0.6481
  -2.000   0.4106   0.01673   0.00602  -0.1402  0.4000  0.1272  -1.1655   0.0000   0.5935
  -1.500   0.4655   0.01621   0.00547  -0.1400  0.4000  0.1558  -0.9813   0.0000   0.5517
  -1.000   0.5199   0.01571   0.00507  -0.1399  0.4000  0.1958  -0.8890   0.0000   0.5189
  -0.500   0.5742   0.01526   0.00481  -0.1397  0.4000  0.2496  -0.9292   0.0000   0.4924
   0.000   0.6282   0.01483   0.00467  -0.1396  0.4000  0.3313  -0.9706   0.0000   0.4705
   0.500   0.6761   0.01317   0.00464  -0.1375  0.4000  1.0000  -1.0113   0.0000   0.4510
   1.000   0.7305   0.01340   0.00460  -0.1372  0.4000  1.0000  -1.0550   0.0000   0.4348
   1.500   0.7844   0.01364   0.00467  -0.1369  0.4000  1.0000  -1.1000   0.0000   0.4208
   2.000   0.8379   0.01390   0.00482  -0.1365  0.4000  1.0000  -1.1467   0.0000   0.4087
   2.500   0.8909   0.01418   0.00503  -0.1361  0.4000  1.0000  -1.1935   0.0000   0.3979
   3.000   0.9436   0.01448   0.00531  -0.1357  0.4000  1.0000  -1.2432   0.0000   0.3883
   3.500   0.9958   0.01481   0.00562  -0.1351  0.4000  1.0000  -1.2933   0.0000   0.3796
   4.000   1.0475   0.01515   0.00599  -0.1346  0.4000  1.0000  -1.3459   0.0000   0.3717
   4.500   1.0988   0.01553   0.00646  -0.1340  0.4000  1.0000  -1.3996   0.0000   0.3645
   5.000   1.1495   0.01593   0.00693  -0.1333  0.4000  1.0000  -1.4567   0.0000   0.3579
   5.500   1.1998   0.01636   0.00746  -0.1325  0.4000  1.0000  -1.5160   0.0000   0.3517
   6.000   1.2494   0.01682   0.00804  -0.1317  0.4000  1.0000  -1.5791   0.0000   0.3460
   6.500   1.2983   0.01732   0.00875  -0.1308  0.4000  1.0000  -1.6820   0.0000   0.3406
   7.000   1.3467   0.01786   0.00947  -0.1298  0.4000  1.0000  -1.8826   0.0000   0.3355
   7.500   1.3945   0.01845   0.01026  -0.1287  0.4000  1.0000  -2.1177   0.0000   0.3307
   8.000   1.4414   0.01909   0.01112  -0.1276  0.4000  1.0000  -2.3595   0.0000   0.3262
   8.500   1.4875   0.01978   0.01214  -0.1263  0.4000  1.0000  -2.6491   0.0000   0.3218
   9.000   1.5338   0.02056   0.01321  -0.1251  0.4000  1.0000  -2.9511   0.0000   0.3176
   9.500   1.5802   0.02144   0.01442  -0.1240  0.4000  1.0000  -3.2627   0.0000   0.3137
  10.000   1.6276   0.02245   0.01585  -0.1232  0.4000  1.0000  -3.5846   0.0000   0.3101
  10.500   1.6495   0.02347   0.01713  -0.1179  0.3811  1.0000  -3.8448   0.0000   0.3050
  11.000   1.6561   0.02491   0.01863  -0.1105  0.3488  1.0000  -4.0929   0.0000   0.2993
  11.500   1.6551   0.02732   0.02103  -0.1032  0.3074  1.0000  -4.3107   0.0000   0.2940
  12.000   1.6375   0.03148   0.02499  -0.0954  0.2504  1.0000  -4.4579   0.0000   0.2889
  12.500   1.6012   0.03814   0.03130  -0.0880  0.1854  1.0000  -4.5179   0.0000   0.2845
  13.000   1.5583   0.04674   0.03959  -0.0825  0.1333  1.0000  -4.5346   0.0000   0.2814
  13.500   1.5206   0.05612   0.04881  -0.0792  0.1023  1.0000  -4.5566   0.0000   0.2795
  14.000   1.4940   0.06494   0.05764  -0.0773  0.0839  1.0000  -4.6154   0.0000   0.2781
  14.500   1.4708   0.07374   0.06644  -0.0762  0.0721  1.0000  -4.6834   0.0000   0.2770
  15.000   1.4621   0.08101   0.07392  -0.0755  0.0633  1.0000  -4.8115   0.0000   0.2758
  15.500   1.4544   0.08781   0.08079  -0.0744  0.0567  1.0000  -4.9346   0.0000   0.2742
  16.000   1.4545   0.09380   0.08691  -0.0738  0.0513  1.0000  -5.0991   0.0000   0.2727
  16.500   1.4626   0.09777   0.09087  -0.0714  0.0463  1.0000  -5.2894   0.0000   0.2697
  17.000   1.4689   0.10310   0.09648  -0.0711  0.0428  1.0000  -5.4679   0.0000   0.2681
  17.500   1.4722   0.10883   0.10232  -0.0714  0.0392  1.0000  -5.6535   0.0000   0.2671
  18.000   1.4811   0.11287   0.10650  -0.0698  0.0358  1.0000  -5.8351   0.0000   0.2645
  18.500   1.4804   0.11953   0.11357  -0.0708  0.0343  1.0000  -5.9509   0.0000   0.2641
  19.000   1.4752   0.12709   0.12150  -0.0727  0.0329  1.0000  -6.0623   0.0000   0.2643
  19.500   1.4655   0.13571   0.13049  -0.0757  0.0316  1.0000  -6.1557   0.0000   0.2654
  20.000   1.4495   0.14588   0.14104  -0.0802  0.0307  1.0000  -6.1871   0.0000   0.2679


