xflr5 v6.50

 Calculated polar for: NACA 6412

 1 1 Reynolds number fixed          Mach number fixed         

 xtrf =   0.100 (top)        1.000 (bottom)
 Mach =   0.000     Re =     0.262 e 6     Ncrit =   9.000

  alpha     CL        CD       CDp       Cm    Top Xtr Bot Xtr   Cpmin    Chinge    XCp    
 ------- -------- --------- --------- -------- ------- ------- -------- --------- ---------
  -3.000   0.2907   0.01744   0.00651  -0.1389  0.1000  0.0743  -1.7416   0.0000   0.7335
  -2.500   0.3445   0.01706   0.00602  -0.1385  0.1000  0.0876  -1.4824   0.0000   0.6559
  -2.000   0.3980   0.01645   0.00539  -0.1382  0.1000  0.1055  -1.2374   0.0000   0.5995
  -1.500   0.4514   0.01617   0.00513  -0.1379  0.1000  0.1302  -1.0348   0.0000   0.5565
  -1.000   0.5046   0.01595   0.00492  -0.1375  0.1000  0.1629  -0.8739   0.0000   0.5226
  -0.500   0.5576   0.01583   0.00488  -0.1372  0.1000  0.2080  -0.9130   0.0000   0.4952
   0.000   0.6102   0.01575   0.00492  -0.1368  0.1000  0.2689  -0.9544   0.0000   0.4725
   0.500   0.6625   0.01554   0.00502  -0.1365  0.1000  0.3769  -0.9963   0.0000   0.4537
   1.500   0.7590   0.01474   0.00537  -0.1333  0.1000  1.0000  -1.0786   0.0000   0.4221
   2.000   0.8096   0.01512   0.00559  -0.1325  0.1000  1.0000  -1.1231   0.0000   0.4094
   2.500   0.8594   0.01553   0.00587  -0.1316  0.1000  1.0000  -1.1672   0.0000   0.3982
   3.000   0.9084   0.01595   0.00623  -0.1305  0.1000  1.0000  -1.2140   0.0000   0.3882
   3.500   0.9563   0.01641   0.00662  -0.1293  0.1000  1.0000  -1.2606   0.0000   0.3791
   4.000   1.0030   0.01690   0.00706  -0.1279  0.1000  1.0000  -1.3080   0.0000   0.3707
   4.500   1.0470   0.01741   0.00755  -0.1260  0.1000  1.0000  -1.3558   0.0000   0.3629
   5.000   1.0901   0.01798   0.00815  -0.1240  0.1000  1.0000  -1.4036   0.0000   0.3557
   5.500   1.1324   0.01860   0.00879  -0.1220  0.1000  1.0000  -1.4541   0.0000   0.3490
   6.000   1.1738   0.01929   0.00951  -0.1199  0.1000  1.0000  -1.5075   0.0000   0.3427
   6.500   1.2141   0.02004   0.01032  -0.1178  0.1000  1.0000  -1.5798   0.0000   0.3368
   7.000   1.2530   0.02088   0.01128  -0.1155  0.1000  1.0000  -1.7031   0.0000   0.3313
   7.500   1.2907   0.02180   0.01230  -0.1132  0.1000  1.0000  -1.8879   0.0000   0.3260
   8.000   1.3269   0.02283   0.01344  -0.1108  0.1000  1.0000  -2.0966   0.0000   0.3211
   8.500   1.3617   0.02399   0.01472  -0.1083  0.1000  1.0000  -2.3088   0.0000   0.3163
   9.000   1.3948   0.02528   0.01621  -0.1058  0.1000  1.0000  -2.5568   0.0000   0.3118
   9.500   1.4259   0.02674   0.01784  -0.1032  0.1000  1.0000  -2.8115   0.0000   0.3075
  10.000   1.4554   0.02838   0.01967  -0.1006  0.1000  1.0000  -3.0682   0.0000   0.3034
  10.500   1.4830   0.03023   0.02173  -0.0981  0.1000  1.0000  -3.3252   0.0000   0.2995
  11.000   1.5082   0.03232   0.02409  -0.0955  0.1000  1.0000  -3.5782   0.0000   0.2957
  11.500   1.5310   0.03470   0.02672  -0.0929  0.1000  1.0000  -3.8478   0.0000   0.2922
  12.000   1.5511   0.03743   0.02974  -0.0904  0.1000  1.0000  -4.1389   0.0000   0.2888
  12.500   1.5677   0.04062   0.03326  -0.0879  0.1000  1.0000  -4.4157   0.0000   0.2856
  13.000   1.5601   0.04636   0.03916  -0.0846  0.0856  1.0000  -4.5807   0.0000   0.2827
  13.500   1.5417   0.05379   0.04664  -0.0819  0.0685  1.0000  -4.6940   0.0000   0.2805
  14.000   1.5210   0.06201   0.05493  -0.0801  0.0585  1.0000  -4.7879   0.0000   0.2789
  14.500   1.5109   0.06924   0.06237  -0.0790  0.0517  1.0000  -4.9266   0.0000   0.2775
  15.000   1.4910   0.07789   0.07114  -0.0782  0.0465  1.0000  -5.0079   0.0000   0.2765
  15.500   1.4873   0.08470   0.07817  -0.0779  0.0425  1.0000  -5.1694   0.0000   0.2753
  16.000   1.4791   0.09204   0.08562  -0.0778  0.0389  1.0000  -5.3113   0.0000   0.2745
  16.500   1.4727   0.09876   0.09245  -0.0773  0.0355  1.0000  -5.4464   0.0000   0.2732
  17.000   1.4740   0.10512   0.09903  -0.0778  0.0327  1.0000  -5.6300   0.0000   0.2723
  17.500   1.4748   0.11138   0.10543  -0.0783  0.0303  1.0000  -5.8099   0.0000   0.2715
  18.000   1.4762   0.11689   0.11100  -0.0781  0.0279  1.0000  -5.9791   0.0000   0.2701
  18.500   1.4810   0.12174   0.11610  -0.0775  0.0263  1.0000  -6.1416   0.0000   0.2683
  19.000   1.4825   0.12796   0.12259  -0.0788  0.0253  1.0000  -6.3052   0.0000   0.2679
  19.500   1.4827   0.13448   0.12939  -0.0804  0.0242  1.0000  -6.5017   0.0000   0.2677
  20.000   1.4786   0.14202   0.13721  -0.0831  0.0231  1.0000  -6.6578   0.0000   0.2684


