xflr5 v6.50

 Calculated polar for: NACA 6412

 1 1 Reynolds number fixed          Mach number fixed         

 xtrf =   0.010 (top)        1.000 (bottom)
 Mach =   0.000     Re =     0.350 e 6     Ncrit =   9.000

  alpha     CL        CD       CDp       Cm    Top Xtr Bot Xtr   Cpmin    Chinge    XCp    
 ------- -------- --------- --------- -------- ------- ------- -------- --------- ---------
  -3.000   0.2964   0.01590   0.00554  -0.1399  0.0100  0.0672  -1.7653   0.0000   0.7278
  -2.500   0.3502   0.01548   0.00502  -0.1396  0.0100  0.0793  -1.5038   0.0000   0.6523
  -2.000   0.4039   0.01525   0.00474  -0.1393  0.0100  0.0964  -1.2443   0.0000   0.5970
  -1.500   0.4575   0.01511   0.00455  -0.1389  0.0100  0.1181  -1.0400   0.0000   0.5547
  -1.000   0.5108   0.01499   0.00446  -0.1386  0.0100  0.1500  -0.8744   0.0000   0.5214
  -0.500   0.5637   0.01497   0.00449  -0.1382  0.0100  0.1909  -0.9134   0.0000   0.4944
   0.000   0.6163   0.01499   0.00458  -0.1378  0.0100  0.2441  -0.9551   0.0000   0.4720
   0.500   0.6684   0.01498   0.00475  -0.1374  0.0100  0.3249  -0.9967   0.0000   0.4533
   1.000   0.7134   0.01372   0.00506  -0.1353  0.0100  1.0000  -1.0353   0.0000   0.4367
   1.500   0.7645   0.01411   0.00525  -0.1345  0.0100  1.0000  -1.0790   0.0000   0.4223
   2.000   0.8147   0.01454   0.00552  -0.1336  0.0100  1.0000  -1.1231   0.0000   0.4098
   2.500   0.8640   0.01499   0.00583  -0.1326  0.0100  1.0000  -1.1672   0.0000   0.3986
   3.000   0.9121   0.01548   0.00623  -0.1314  0.0100  1.0000  -1.2136   0.0000   0.3886
   3.500   0.9591   0.01600   0.00666  -0.1300  0.0100  1.0000  -1.2596   0.0000   0.3794
   4.000   1.0041   0.01656   0.00715  -0.1283  0.0100  1.0000  -1.3069   0.0000   0.3710
   4.500   1.0461   0.01716   0.00770  -0.1261  0.0100  1.0000  -1.3532   0.0000   0.3631
   5.000   1.0876   0.01784   0.00837  -0.1238  0.0100  1.0000  -1.4024   0.0000   0.3558
   5.500   1.1278   0.01858   0.00910  -0.1215  0.0100  1.0000  -1.4525   0.0000   0.3490
   6.000   1.1667   0.01942   0.00992  -0.1191  0.0100  1.0000  -1.5050   0.0000   0.3427
   6.500   1.2041   0.02034   0.01085  -0.1166  0.0100  1.0000  -1.5607   0.0000   0.3367
   7.000   1.2401   0.02138   0.01195  -0.1140  0.0100  1.0000  -1.6839   0.0000   0.3311
   7.500   1.2741   0.02254   0.01316  -0.1113  0.0100  1.0000  -1.8549   0.0000   0.3257
   8.000   1.3065   0.02386   0.01453  -0.1086  0.0100  1.0000  -2.0511   0.0000   0.3207
   8.500   1.3371   0.02535   0.01607  -0.1058  0.0100  1.0000  -2.2526   0.0000   0.3159
   9.000   1.3656   0.02703   0.01787  -0.1030  0.0100  1.0000  -2.4724   0.0000   0.3114
   9.500   1.3919   0.02896   0.01990  -0.1002  0.0100  1.0000  -2.7117   0.0000   0.3071
  10.000   1.4160   0.03115   0.02219  -0.0975  0.0100  1.0000  -2.9494   0.0000   0.3031
  10.500   1.4375   0.03362   0.02478  -0.0948  0.0100  1.0000  -3.1849   0.0000   0.2993
  11.000   1.4568   0.03643   0.02772  -0.0923  0.0100  1.0000  -3.4180   0.0000   0.2957
  11.500   1.4737   0.03960   0.03106  -0.0899  0.0100  1.0000  -3.6458   0.0000   0.2924
  12.000   1.4883   0.04313   0.03474  -0.0877  0.0100  1.0000  -3.8965   0.0000   0.2894
  12.500   1.5004   0.04708   0.03886  -0.0858  0.0100  1.0000  -4.1569   0.0000   0.2866
  13.000   1.5105   0.05146   0.04341  -0.0842  0.0100  1.0000  -4.4122   0.0000   0.2842
  13.500   1.5187   0.05623   0.04836  -0.0829  0.0100  1.0000  -4.6627   0.0000   0.2819
  14.000   1.5248   0.06139   0.05371  -0.0818  0.0100  1.0000  -4.9061   0.0000   0.2799
  14.500   1.5283   0.06692   0.05946  -0.0810  0.0100  1.0000  -5.1362   0.0000   0.2782
  15.000   1.5306   0.07280   0.06554  -0.0804  0.0100  1.0000  -5.3643   0.0000   0.2766
  15.500   1.5317   0.07897   0.07190  -0.0802  0.0100  1.0000  -5.5869   0.0000   0.2753
  16.000   1.5311   0.08546   0.07860  -0.0802  0.0100  1.0000  -5.8010   0.0000   0.2742
  16.500   1.5291   0.09220   0.08554  -0.0805  0.0100  1.0000  -6.0067   0.0000   0.2733
  17.000   1.5258   0.09911   0.09266  -0.0811  0.0100  1.0000  -6.2041   0.0000   0.2726
  17.500   1.5232   0.10605   0.09983  -0.0819  0.0100  1.0000  -6.4048   0.0000   0.2720
  18.000   1.5195   0.11328   0.10727  -0.0831  0.0100  1.0000  -6.5942   0.0000   0.2717
  18.500   1.5149   0.12071   0.11492  -0.0847  0.0100  1.0000  -6.7732   0.0000   0.2717
  19.000   1.5116   0.12795   0.12237  -0.0865  0.0100  1.0000  -6.9561   0.0000   0.2718
  19.500   1.5057   0.13568   0.13031  -0.0888  0.0100  1.0000  -7.1133   0.0000   0.2722
  20.000   1.4991   0.14361   0.13847  -0.0915  0.0100  1.0000  -7.2565   0.0000   0.2730


