xflr5 v6.50

 Calculated polar for: NACA 6412

 1 1 Reynolds number fixed          Mach number fixed         

 xtrf =   0.500 (top)        1.000 (bottom)
 Mach =   0.000     Re =     0.175 e 6     Ncrit =   9.000

  alpha     CL        CD       CDp       Cm    Top Xtr Bot Xtr   Cpmin    Chinge    XCp    
 ------- -------- --------- --------- -------- ------- ------- -------- --------- ---------
  -3.000   0.3121   0.01766   0.00771  -0.1426  0.5000  0.0923  -1.6067   0.0000   0.7119
  -2.500   0.3677   0.01665   0.00659  -0.1425  0.5000  0.1084  -1.3738   0.0000   0.6410
  -2.000   0.4231   0.01590   0.00583  -0.1424  0.5000  0.1300  -1.1434   0.0000   0.5886
  -1.500   0.4786   0.01525   0.00519  -0.1424  0.5000  0.1593  -0.9607   0.0000   0.5483
  -1.000   0.5338   0.01479   0.00483  -0.1423  0.5000  0.2007  -0.8932   0.0000   0.5166
  -0.500   0.5888   0.01437   0.00462  -0.1423  0.5000  0.2570  -0.9334   0.0000   0.4908
   0.000   0.6435   0.01391   0.00448  -0.1423  0.5000  0.3446  -0.9763   0.0000   0.4695
   0.500   0.6929   0.01232   0.00445  -0.1405  0.5000  1.0000  -1.0174   0.0000   0.4504
   1.000   0.7483   0.01254   0.00444  -0.1404  0.5000  1.0000  -1.0613   0.0000   0.4347
   1.500   0.8032   0.01278   0.00453  -0.1403  0.5000  1.0000  -1.1079   0.0000   0.4211
   2.000   0.8580   0.01305   0.00470  -0.1402  0.5000  1.0000  -1.1550   0.0000   0.4092
   2.500   0.9125   0.01334   0.00494  -0.1401  0.5000  1.0000  -1.2031   0.0000   0.3987
   3.000   0.9670   0.01367   0.00527  -0.1400  0.5000  1.0000  -1.2538   0.0000   0.3894
   3.500   1.0213   0.01404   0.00563  -0.1399  0.5000  1.0000  -1.3049   0.0000   0.3810
   4.000   1.0757   0.01445   0.00607  -0.1399  0.5000  1.0000  -1.3596   0.0000   0.3734
   4.500   1.1301   0.01492   0.00664  -0.1399  0.5000  1.0000  -1.4156   0.0000   0.3665
   5.000   1.1845   0.01544   0.00725  -0.1400  0.5000  1.0000  -1.4746   0.0000   0.3603
   5.500   1.2391   0.01606   0.00797  -0.1402  0.5000  1.0000  -1.5376   0.0000   0.3546
   6.000   1.2939   0.01678   0.00884  -0.1406  0.5000  1.0000  -1.6052   0.0000   0.3494
   6.500   1.3487   0.01764   0.00994  -0.1410  0.5000  1.0000  -1.7644   0.0000   0.3446
   7.000   1.4031   0.01869   0.01122  -0.1415  0.5000  1.0000  -1.9910   0.0000   0.3402
   7.500   1.4562   0.02003   0.01284  -0.1419  0.5000  1.0000  -2.2377   0.0000   0.3361
   8.000   1.5034   0.02110   0.01422  -0.1409  0.4925  1.0000  -2.5013   0.0000   0.3316
   8.500   1.5437   0.02119   0.01430  -0.1379  0.4693  1.0000  -2.7900   0.0000   0.3264
   9.000   1.5846   0.02150   0.01458  -0.1352  0.4482  1.0000  -3.0878   0.0000   0.3215
   9.500   1.6133   0.02193   0.01520  -0.1305  0.4279  1.0000  -3.3555   0.0000   0.3162
  10.000   1.6352   0.02259   0.01612  -0.1247  0.4062  1.0000  -3.6056   0.0000   0.3107
  10.500   1.6495   0.02347   0.01713  -0.1179  0.3811  1.0000  -3.8448   0.0000   0.3050
  11.000   1.6561   0.02491   0.01863  -0.1105  0.3488  1.0000  -4.0929   0.0000   0.2993
  11.500   1.6551   0.02732   0.02103  -0.1032  0.3074  1.0000  -4.3107   0.0000   0.2940
  12.000   1.6375   0.03148   0.02499  -0.0954  0.2504  1.0000  -4.4579   0.0000   0.2889
  12.500   1.6012   0.03814   0.03130  -0.0880  0.1854  1.0000  -4.5179   0.0000   0.2845
  13.000   1.5583   0.04674   0.03959  -0.0825  0.1333  1.0000  -4.5346   0.0000   0.2814
  13.500   1.5206   0.05612   0.04881  -0.0792  0.1023  1.0000  -4.5566   0.0000   0.2795
  14.000   1.4940   0.06494   0.05764  -0.0773  0.0839  1.0000  -4.6154   0.0000   0.2781
  14.500   1.4708   0.07374   0.06644  -0.0762  0.0721  1.0000  -4.6834   0.0000   0.2770
  15.000   1.4621   0.08101   0.07392  -0.0755  0.0633  1.0000  -4.8115   0.0000   0.2758
  15.500   1.4544   0.08781   0.08079  -0.0744  0.0567  1.0000  -4.9346   0.0000   0.2742
  16.000   1.4545   0.09380   0.08691  -0.0738  0.0513  1.0000  -5.0991   0.0000   0.2727
  16.500   1.4626   0.09777   0.09087  -0.0714  0.0463  1.0000  -5.2894   0.0000   0.2697
  17.000   1.4689   0.10310   0.09648  -0.0711  0.0428  1.0000  -5.4679   0.0000   0.2681
  17.500   1.4722   0.10883   0.10232  -0.0714  0.0392  1.0000  -5.6535   0.0000   0.2671
  18.000   1.4811   0.11287   0.10650  -0.0698  0.0358  1.0000  -5.8351   0.0000   0.2645
  18.500   1.4804   0.11953   0.11357  -0.0708  0.0343  1.0000  -5.9509   0.0000   0.2641
  19.000   1.4752   0.12709   0.12150  -0.0727  0.0329  1.0000  -6.0623   0.0000   0.2643
  19.500   1.4655   0.13571   0.13049  -0.0757  0.0316  1.0000  -6.1557   0.0000   0.2654
  20.000   1.4495   0.14588   0.14104  -0.0802  0.0307  1.0000  -6.1871   0.0000   0.2679


