xflr5 v6.50

 Calculated polar for: NACA 6412

 1 1 Reynolds number fixed          Mach number fixed         

 xtrf =   0.400 (top)        1.000 (bottom)
 Mach =   0.000     Re =     0.262 e 6     Ncrit =   9.000

  alpha     CL        CD       CDp       Cm    Top Xtr Bot Xtr   Cpmin    Chinge    XCp    
 ------- -------- --------- --------- -------- ------- ------- -------- --------- ---------
  -3.000   0.3112   0.01542   0.00564  -0.1422  0.4000  0.0766  -1.6908   0.0000   0.7120
  -2.500   0.3664   0.01484   0.00503  -0.1421  0.4000  0.0915  -1.4310   0.0000   0.6412
  -2.000   0.4216   0.01430   0.00451  -0.1420  0.4000  0.1099  -1.1861   0.0000   0.5888
  -1.500   0.4768   0.01400   0.00421  -0.1419  0.4000  0.1365  -0.9870   0.0000   0.5484
  -1.000   0.5319   0.01364   0.00395  -0.1418  0.4000  0.1724  -0.8956   0.0000   0.5166
  -0.500   0.5869   0.01340   0.00383  -0.1418  0.4000  0.2206  -0.9365   0.0000   0.4907
   0.000   0.6417   0.01316   0.00380  -0.1418  0.4000  0.2890  -0.9788   0.0000   0.4693
   0.500   0.6955   0.01253   0.00388  -0.1419  0.4000  0.4927  -1.0223   0.0000   0.4517
   1.500   0.7990   0.01185   0.00400  -0.1397  0.4000  1.0000  -1.1097   0.0000   0.4212
   2.000   0.8530   0.01207   0.00413  -0.1394  0.4000  1.0000  -1.1571   0.0000   0.4092
   2.500   0.9067   0.01231   0.00431  -0.1391  0.4000  1.0000  -1.2045   0.0000   0.3985
   3.000   0.9600   0.01257   0.00455  -0.1388  0.4000  1.0000  -1.2551   0.0000   0.3890
   3.500   1.0129   0.01284   0.00482  -0.1383  0.4000  1.0000  -1.3059   0.0000   0.3805
   4.000   1.0654   0.01314   0.00513  -0.1379  0.4000  1.0000  -1.3596   0.0000   0.3727
   4.500   1.1173   0.01346   0.00552  -0.1374  0.4000  1.0000  -1.4140   0.0000   0.3655
   5.000   1.1688   0.01379   0.00592  -0.1368  0.4000  1.0000  -1.4723   0.0000   0.3590
   5.500   1.2197   0.01416   0.00636  -0.1361  0.4000  1.0000  -1.5329   0.0000   0.3529
   6.000   1.2702   0.01454   0.00686  -0.1354  0.4000  1.0000  -1.5975   0.0000   0.3472
   6.500   1.3200   0.01496   0.00745  -0.1346  0.4000  1.0000  -1.7256   0.0000   0.3418
   7.000   1.3693   0.01541   0.00805  -0.1337  0.4000  1.0000  -1.9384   0.0000   0.3368
   7.500   1.4179   0.01590   0.00871  -0.1328  0.4000  1.0000  -2.1783   0.0000   0.3320
   8.000   1.4656   0.01642   0.00943  -0.1317  0.4000  1.0000  -2.4326   0.0000   0.3275
   8.500   1.5128   0.01700   0.01028  -0.1305  0.4000  1.0000  -2.7353   0.0000   0.3231
   9.000   1.5603   0.01765   0.01118  -0.1295  0.4000  1.0000  -3.0456   0.0000   0.3190
   9.500   1.6053   0.01842   0.01216  -0.1281  0.3971  1.0000  -3.3584   0.0000   0.3150
  10.000   1.6270   0.01929   0.01318  -0.1225  0.3716  1.0000  -3.6082   0.0000   0.3096
  10.500   1.6433   0.02068   0.01457  -0.1166  0.3407  1.0000  -3.8590   0.0000   0.3044
  11.000   1.6517   0.02279   0.01662  -0.1102  0.2964  1.0000  -4.1137   0.0000   0.2992
  11.500   1.6414   0.02648   0.02004  -0.1025  0.2378  1.0000  -4.2939   0.0000   0.2940
  12.000   1.6162   0.03203   0.02524  -0.0949  0.1717  1.0000  -4.4071   0.0000   0.2893
  12.500   1.5856   0.03898   0.03190  -0.0888  0.1180  1.0000  -4.4884   0.0000   0.2855
  13.000   1.5601   0.04636   0.03916  -0.0846  0.0856  1.0000  -4.5807   0.0000   0.2827
  13.500   1.5417   0.05379   0.04664  -0.0819  0.0685  1.0000  -4.6940   0.0000   0.2805
  14.000   1.5210   0.06201   0.05493  -0.0801  0.0585  1.0000  -4.7879   0.0000   0.2789
  14.500   1.5109   0.06924   0.06237  -0.0790  0.0517  1.0000  -4.9266   0.0000   0.2775
  15.000   1.4910   0.07789   0.07114  -0.0782  0.0465  1.0000  -5.0079   0.0000   0.2765
  15.500   1.4873   0.08470   0.07817  -0.0779  0.0425  1.0000  -5.1694   0.0000   0.2753
  16.000   1.4791   0.09204   0.08562  -0.0778  0.0389  1.0000  -5.3113   0.0000   0.2745
  16.500   1.4727   0.09876   0.09245  -0.0773  0.0355  1.0000  -5.4464   0.0000   0.2732
  17.000   1.4740   0.10512   0.09903  -0.0778  0.0327  1.0000  -5.6300   0.0000   0.2723
  17.500   1.4748   0.11138   0.10543  -0.0783  0.0303  1.0000  -5.8099   0.0000   0.2715
  18.000   1.4762   0.11689   0.11100  -0.0781  0.0279  1.0000  -5.9791   0.0000   0.2701
  18.500   1.4810   0.12174   0.11610  -0.0775  0.0263  1.0000  -6.1416   0.0000   0.2683
  19.000   1.4825   0.12796   0.12259  -0.0788  0.0253  1.0000  -6.3052   0.0000   0.2679
  19.500   1.4827   0.13448   0.12939  -0.0804  0.0242  1.0000  -6.5017   0.0000   0.2677
  20.000   1.4786   0.14202   0.13721  -0.0831  0.0231  1.0000  -6.6578   0.0000   0.2684


