xflr5 v6.50

 Calculated polar for: NACA 6412

 1 1 Reynolds number fixed          Mach number fixed         

 xtrf =   0.400 (top)        1.000 (bottom)
 Mach =   0.000     Re =     0.350 e 6     Ncrit =   9.000

  alpha     CL        CD       CDp       Cm    Top Xtr Bot Xtr   Cpmin    Chinge    XCp    
 ------- -------- --------- --------- -------- ------- ------- -------- --------- ---------
  -3.000   0.3177   0.01391   0.00472  -0.1433  0.4000  0.0692  -1.7095   0.0000   0.7062
  -2.500   0.3733   0.01339   0.00419  -0.1433  0.4000  0.0826  -1.4429   0.0000   0.6373
  -2.000   0.4289   0.01302   0.00381  -0.1433  0.4000  0.1005  -1.1910   0.0000   0.5860
  -1.500   0.4844   0.01267   0.00352  -0.1433  0.4000  0.1255  -0.9882   0.0000   0.5466
  -1.000   0.5399   0.01246   0.00336  -0.1433  0.4000  0.1585  -0.8999   0.0000   0.5153
  -0.500   0.5953   0.01227   0.00331  -0.1433  0.4000  0.2041  -0.9411   0.0000   0.4898
   0.000   0.6504   0.01211   0.00332  -0.1433  0.4000  0.2638  -0.9839   0.0000   0.4687
   0.500   0.7054   0.01186   0.00337  -0.1434  0.4000  0.3642  -1.0282   0.0000   0.4510
   1.500   0.8090   0.01076   0.00361  -0.1417  0.4000  1.0000  -1.1160   0.0000   0.4215
   2.000   0.8634   0.01096   0.00373  -0.1415  0.4000  1.0000  -1.1638   0.0000   0.4096
   2.500   0.9175   0.01118   0.00392  -0.1412  0.4000  1.0000  -1.2116   0.0000   0.3990
   3.000   0.9712   0.01141   0.00411  -0.1409  0.4000  1.0000  -1.2629   0.0000   0.3896
   3.500   1.0246   0.01165   0.00435  -0.1406  0.4000  1.0000  -1.3141   0.0000   0.3811
   4.000   1.0775   0.01191   0.00463  -0.1402  0.4000  1.0000  -1.3685   0.0000   0.3734
   4.500   1.1299   0.01219   0.00498  -0.1398  0.4000  1.0000  -1.4236   0.0000   0.3663
   5.000   1.1819   0.01249   0.00533  -0.1393  0.4000  1.0000  -1.4826   0.0000   0.3598
   5.500   1.2333   0.01281   0.00573  -0.1387  0.4000  1.0000  -1.5440   0.0000   0.3537
   6.000   1.2841   0.01316   0.00617  -0.1380  0.4000  1.0000  -1.6096   0.0000   0.3480
   6.500   1.3344   0.01353   0.00669  -0.1373  0.4000  1.0000  -1.7544   0.0000   0.3427
   7.000   1.3841   0.01393   0.00722  -0.1365  0.4000  1.0000  -1.9749   0.0000   0.3377
   7.500   1.4332   0.01436   0.00781  -0.1355  0.4000  1.0000  -2.2175   0.0000   0.3330
   8.000   1.4812   0.01483   0.00849  -0.1345  0.4000  1.0000  -2.4859   0.0000   0.3284
   8.500   1.5287   0.01535   0.00920  -0.1333  0.4000  1.0000  -2.7895   0.0000   0.3240
   9.000   1.5733   0.01598   0.01000  -0.1317  0.3968  1.0000  -3.0941   0.0000   0.3197
   9.500   1.6030   0.01671   0.01081  -0.1274  0.3729  1.0000  -3.3647   0.0000   0.3146
  10.000   1.6272   0.01784   0.01196  -0.1226  0.3437  1.0000  -3.6229   0.0000   0.3096
  10.500   1.6438   0.01954   0.01358  -0.1170  0.3014  1.0000  -3.8805   0.0000   0.3046
  11.000   1.6417   0.02259   0.01632  -0.1096  0.2430  1.0000  -4.0940   0.0000   0.2992
  12.000   1.6071   0.03250   0.02558  -0.0952  0.1205  1.0000  -4.3880   0.0000   0.2898
  12.500   1.5903   0.03841   0.03135  -0.0901  0.0842  1.0000  -4.5285   0.0000   0.2862
  13.000   1.5773   0.04456   0.03749  -0.0864  0.0643  1.0000  -4.6799   0.0000   0.2832
  13.500   1.5669   0.05103   0.04406  -0.0837  0.0533  1.0000  -4.8363   0.0000   0.2808
  14.000   1.5520   0.05847   0.05164  -0.0818  0.0461  1.0000  -4.9617   0.0000   0.2790
  14.500   1.5460   0.06509   0.05845  -0.0806  0.0412  1.0000  -5.1330   0.0000   0.2773
  15.000   1.5233   0.07409   0.06759  -0.0797  0.0368  1.0000  -5.2099   0.0000   0.2764
  15.500   1.5211   0.08069   0.07439  -0.0794  0.0341  1.0000  -5.3951   0.0000   0.2751
  16.000   1.5166   0.08768   0.08156  -0.0794  0.0312  1.0000  -5.5704   0.0000   0.2742
  16.500   1.5041   0.09572   0.08972  -0.0797  0.0287  1.0000  -5.6932   0.0000   0.2737
  17.000   1.4905   0.10373   0.09788  -0.0798  0.0266  1.0000  -5.7849   0.0000   0.2731
  17.500   1.4918   0.11006   0.10443  -0.0804  0.0253  1.0000  -5.9725   0.0000   0.2722
  18.000   1.4912   0.11667   0.11125  -0.0813  0.0238  1.0000  -6.1450   0.0000   0.2716
  18.500   1.4914   0.12310   0.11784  -0.0824  0.0224  1.0000  -6.3218   0.0000   0.2711
  19.000   1.4900   0.12981   0.12470  -0.0839  0.0213  1.0000  -6.4873   0.0000   0.2709
  19.500   1.4894   0.13596   0.13098  -0.0851  0.0200  1.0000  -6.6864   0.0000   0.2705
  20.000   1.4863   0.14178   0.13705  -0.0854  0.0187  1.0000  -6.8367   0.0000   0.2695


