xflr5 v6.50

 Calculated polar for: NACA 6412

 1 1 Reynolds number fixed          Mach number fixed         

 xtrf =   0.200 (top)        1.000 (bottom)
 Mach =   0.000     Re =     0.350 e 6     Ncrit =   9.000

  alpha     CL        CD       CDp       Cm    Top Xtr Bot Xtr   Cpmin    Chinge    XCp    
 ------- -------- --------- --------- -------- ------- ------- -------- --------- ---------
  -3.000   0.3021   0.01532   0.00528  -0.1408  0.2000  0.0678  -1.7490   0.0000   0.7218
  -2.500   0.3567   0.01484   0.00474  -0.1407  0.2000  0.0803  -1.4852   0.0000   0.6480
  -2.000   0.4113   0.01454   0.00442  -0.1405  0.2000  0.0977  -1.2249   0.0000   0.5937
  -1.500   0.4658   0.01434   0.00418  -0.1403  0.2000  0.1196  -1.0226   0.0000   0.5521
  -1.000   0.5201   0.01412   0.00404  -0.1401  0.2000  0.1529  -0.8796   0.0000   0.5194
  -0.500   0.5742   0.01401   0.00401  -0.1399  0.2000  0.1953  -0.9193   0.0000   0.4928
   0.000   0.6281   0.01391   0.00405  -0.1397  0.2000  0.2513  -0.9590   0.0000   0.4709
   0.500   0.6817   0.01379   0.00415  -0.1396  0.2000  0.3380  -1.0012   0.0000   0.4524
   1.500   0.7815   0.01274   0.00448  -0.1373  0.2000  1.0000  -1.0833   0.0000   0.4220
   2.000   0.8340   0.01302   0.00465  -0.1367  0.2000  1.0000  -1.1352   0.0000   0.4097
   2.500   0.8859   0.01332   0.00486  -0.1361  0.2000  1.0000  -1.1886   0.0000   0.3988
   3.000   0.9372   0.01364   0.00513  -0.1354  0.2000  1.0000  -1.2419   0.0000   0.3890
   3.500   0.9878   0.01398   0.00543  -0.1346  0.2000  1.0000  -1.2951   0.0000   0.3802
   4.000   1.0375   0.01433   0.00576  -0.1337  0.2000  1.0000  -1.3481   0.0000   0.3721
   4.500   1.0864   0.01471   0.00614  -0.1326  0.2000  1.0000  -1.4040   0.0000   0.3647
   5.000   1.1340   0.01511   0.00660  -0.1313  0.2000  1.0000  -1.4606   0.0000   0.3578
   5.500   1.1791   0.01554   0.00705  -0.1296  0.2000  1.0000  -1.5159   0.0000   0.3512
   6.000   1.2238   0.01601   0.00758  -0.1279  0.2000  1.0000  -1.5710   0.0000   0.3451
   6.500   1.2677   0.01652   0.00821  -0.1261  0.2000  1.0000  -1.6318   0.0000   0.3393
   7.000   1.3107   0.01709   0.00886  -0.1242  0.2000  1.0000  -1.8167   0.0000   0.3339
   7.500   1.3529   0.01771   0.00959  -0.1223  0.2000  1.0000  -2.0344   0.0000   0.3288
   8.000   1.3940   0.01838   0.01039  -0.1203  0.2000  1.0000  -2.2608   0.0000   0.3239
   8.500   1.4339   0.01913   0.01133  -0.1181  0.2000  1.0000  -2.5185   0.0000   0.3192
   9.000   1.4728   0.01995   0.01232  -0.1160  0.2000  1.0000  -2.7975   0.0000   0.3147
   9.500   1.5100   0.02088   0.01344  -0.1137  0.2000  1.0000  -3.0799   0.0000   0.3104
  10.000   1.5461   0.02191   0.01468  -0.1113  0.2000  1.0000  -3.3670   0.0000   0.3063
  10.500   1.5808   0.02305   0.01609  -0.1089  0.2000  1.0000  -3.6556   0.0000   0.3023
  11.000   1.6135   0.02434   0.01765  -0.1063  0.2000  1.0000  -3.9823   0.0000   0.2984
  12.000   1.6071   0.03250   0.02558  -0.0952  0.1206  1.0000  -4.3880   0.0000   0.2898
  12.500   1.5903   0.03841   0.03135  -0.0901  0.0842  1.0000  -4.5285   0.0000   0.2862
  13.000   1.5773   0.04456   0.03749  -0.0864  0.0643  1.0000  -4.6799   0.0000   0.2832
  13.500   1.5669   0.05103   0.04406  -0.0837  0.0533  1.0000  -4.8363   0.0000   0.2808
  14.000   1.5520   0.05847   0.05164  -0.0818  0.0461  1.0000  -4.9617   0.0000   0.2790
  14.500   1.5460   0.06509   0.05845  -0.0806  0.0412  1.0000  -5.1330   0.0000   0.2773
  15.000   1.5233   0.07409   0.06759  -0.0797  0.0368  1.0000  -5.2099   0.0000   0.2764
  15.500   1.5211   0.08069   0.07439  -0.0794  0.0341  1.0000  -5.3951   0.0000   0.2751
  16.000   1.5166   0.08768   0.08156  -0.0794  0.0312  1.0000  -5.5704   0.0000   0.2742
  16.500   1.5041   0.09572   0.08972  -0.0797  0.0287  1.0000  -5.6932   0.0000   0.2737
  17.000   1.4905   0.10373   0.09788  -0.0798  0.0266  1.0000  -5.7849   0.0000   0.2731
  17.500   1.4918   0.11006   0.10443  -0.0804  0.0253  1.0000  -5.9725   0.0000   0.2722
  18.000   1.4912   0.11667   0.11125  -0.0813  0.0238  1.0000  -6.1450   0.0000   0.2716
  18.500   1.4914   0.12310   0.11784  -0.0824  0.0224  1.0000  -6.3218   0.0000   0.2711
  19.000   1.4900   0.12981   0.12470  -0.0839  0.0213  1.0000  -6.4873   0.0000   0.2709
  19.500   1.4894   0.13596   0.13098  -0.0851  0.0200  1.0000  -6.6864   0.0000   0.2705
  20.000   1.4863   0.14178   0.13705  -0.0854  0.0187  1.0000  -6.8367   0.0000   0.2695


