xflr5 v6.50

 Calculated polar for: NACA 6412

 1 1 Reynolds number fixed          Mach number fixed         

 xtrf =   0.100 (top)        1.000 (bottom)
 Mach =   0.000     Re =     0.350 e 6     Ncrit =   9.000

  alpha     CL        CD       CDp       Cm    Top Xtr Bot Xtr   Cpmin    Chinge    XCp    
 ------- -------- --------- --------- -------- ------- ------- -------- --------- ---------
  -3.000   0.2975   0.01578   0.00549  -0.1401  0.1000  0.0673  -1.7617   0.0000   0.7266
  -2.500   0.3516   0.01533   0.00497  -0.1398  0.1000  0.0796  -1.4994   0.0000   0.6514
  -2.000   0.4057   0.01508   0.00468  -0.1396  0.1000  0.0967  -1.2394   0.0000   0.5963
  -1.500   0.4596   0.01491   0.00446  -0.1393  0.1000  0.1186  -1.0354   0.0000   0.5541
  -1.000   0.5132   0.01475   0.00436  -0.1390  0.1000  0.1509  -0.8768   0.0000   0.5209
  -0.500   0.5666   0.01469   0.00436  -0.1387  0.1000  0.1923  -0.9165   0.0000   0.4940
   0.000   0.6197   0.01467   0.00443  -0.1384  0.1000  0.2463  -0.9586   0.0000   0.4717
   0.500   0.6725   0.01460   0.00457  -0.1381  0.1000  0.3291  -1.0006   0.0000   0.4531
   1.500   0.7702   0.01364   0.00499  -0.1355  0.1000  1.0000  -1.0845   0.0000   0.4223
   2.000   0.8215   0.01399   0.00520  -0.1348  0.1000  1.0000  -1.1292   0.0000   0.4098
   2.500   0.8721   0.01437   0.00546  -0.1339  0.1000  1.0000  -1.1746   0.0000   0.3987
   3.000   0.9218   0.01477   0.00580  -0.1330  0.1000  1.0000  -1.2222   0.0000   0.3888
   3.500   0.9706   0.01519   0.00615  -0.1319  0.1000  1.0000  -1.2693   0.0000   0.3798
   4.000   1.0184   0.01564   0.00655  -0.1307  0.1000  1.0000  -1.3188   0.0000   0.3716
   4.500   1.0641   0.01611   0.00700  -0.1291  0.1000  1.0000  -1.3678   0.0000   0.3639
   5.000   1.1077   0.01663   0.00755  -0.1271  0.1000  1.0000  -1.4175   0.0000   0.3567
   5.500   1.1509   0.01719   0.00812  -0.1252  0.1000  1.0000  -1.4689   0.0000   0.3500
   6.000   1.1932   0.01781   0.00876  -0.1232  0.1000  1.0000  -1.5233   0.0000   0.3438
   6.500   1.2345   0.01849   0.00949  -0.1211  0.1000  1.0000  -1.6006   0.0000   0.3379
   7.000   1.2745   0.01924   0.01034  -0.1189  0.1000  1.0000  -1.7451   0.0000   0.3324
   7.500   1.3133   0.02007   0.01125  -0.1166  0.1000  1.0000  -1.9414   0.0000   0.3272
   8.000   1.3509   0.02099   0.01227  -0.1143  0.1000  1.0000  -2.1560   0.0000   0.3222
   8.500   1.3869   0.02202   0.01341  -0.1119  0.1000  1.0000  -2.3774   0.0000   0.3175
   9.000   1.4213   0.02319   0.01475  -0.1094  0.1000  1.0000  -2.6411   0.0000   0.3130
   9.500   1.4544   0.02447   0.01618  -0.1069  0.1000  1.0000  -2.9054   0.0000   0.3086
  10.000   1.4855   0.02592   0.01780  -0.1043  0.1000  1.0000  -3.1710   0.0000   0.3045
  10.500   1.5146   0.02759   0.01965  -0.1017  0.1000  1.0000  -3.4370   0.0000   0.3005
  11.000   1.5417   0.02946   0.02177  -0.0991  0.1000  1.0000  -3.7003   0.0000   0.2967
  11.500   1.5667   0.03157   0.02411  -0.0965  0.1000  1.0000  -4.0080   0.0000   0.2931
  12.000   1.5889   0.03399   0.02681  -0.0938  0.1000  1.0000  -4.3130   0.0000   0.2896
  12.500   1.5903   0.03841   0.03135  -0.0901  0.0842  1.0000  -4.5285   0.0000   0.2862
  13.000   1.5773   0.04456   0.03749  -0.0864  0.0643  1.0000  -4.6799   0.0000   0.2832
  13.500   1.5669   0.05103   0.04406  -0.0837  0.0533  1.0000  -4.8363   0.0000   0.2808
  14.000   1.5520   0.05847   0.05164  -0.0818  0.0461  1.0000  -4.9617   0.0000   0.2790
  14.500   1.5460   0.06509   0.05845  -0.0806  0.0412  1.0000  -5.1330   0.0000   0.2773
  15.000   1.5233   0.07409   0.06759  -0.0797  0.0368  1.0000  -5.2099   0.0000   0.2764
  15.500   1.5211   0.08069   0.07439  -0.0794  0.0341  1.0000  -5.3951   0.0000   0.2751
  16.000   1.5166   0.08768   0.08156  -0.0794  0.0312  1.0000  -5.5704   0.0000   0.2742
  16.500   1.5041   0.09572   0.08972  -0.0797  0.0287  1.0000  -5.6932   0.0000   0.2737
  17.000   1.4905   0.10373   0.09788  -0.0798  0.0266  1.0000  -5.7849   0.0000   0.2731
  17.500   1.4918   0.11006   0.10443  -0.0804  0.0253  1.0000  -5.9725   0.0000   0.2722
  18.000   1.4912   0.11667   0.11125  -0.0813  0.0238  1.0000  -6.1450   0.0000   0.2716
  18.500   1.4914   0.12310   0.11784  -0.0824  0.0224  1.0000  -6.3218   0.0000   0.2711
  19.000   1.4900   0.12981   0.12470  -0.0839  0.0213  1.0000  -6.4873   0.0000   0.2709
  19.500   1.4894   0.13596   0.13098  -0.0851  0.0200  1.0000  -6.6864   0.0000   0.2705
  20.000   1.4863   0.14178   0.13705  -0.0854  0.0187  1.0000  -6.8367   0.0000   0.2695


