xflr5 v6.50

 Calculated polar for: NACA 6412

 1 1 Reynolds number fixed          Mach number fixed         

 xtrf =   0.600 (top)        1.000 (bottom)
 Mach =   0.000     Re =     0.175 e 6     Ncrit =   9.000

  alpha     CL        CD       CDp       Cm    Top Xtr Bot Xtr   Cpmin    Chinge    XCp    
 ------- -------- --------- --------- -------- ------- ------- -------- --------- ---------
  -3.000   0.3246   0.01694   0.00765  -0.1451  0.6000  0.0940  -1.5773   0.0000   0.7019
  -2.500   0.3808   0.01588   0.00650  -0.1452  0.6000  0.1102  -1.3462   0.0000   0.6345
  -2.000   0.4370   0.01517   0.00577  -0.1452  0.6000  0.1332  -1.1209   0.0000   0.5843
  -1.500   0.4929   0.01446   0.00515  -0.1453  0.6000  0.1630  -0.9370   0.0000   0.5457
  -1.000   0.5489   0.01401   0.00483  -0.1454  0.6000  0.2058  -0.8987   0.0000   0.5149
  -0.500   0.6049   0.01366   0.00464  -0.1456  0.6000  0.2652  -0.9396   0.0000   0.4899
   0.000   0.6603   0.01314   0.00454  -0.1458  0.6000  0.3607  -0.9826   0.0000   0.4693
   0.500   0.7117   0.01169   0.00456  -0.1444  0.6000  1.0000  -1.0243   0.0000   0.4507
   1.000   0.7686   0.01196   0.00462  -0.1447  0.6000  1.0000  -1.0687   0.0000   0.4354
   1.500   0.8257   0.01230   0.00483  -0.1451  0.6000  1.0000  -1.1159   0.0000   0.4223
   2.000   0.8830   0.01273   0.00516  -0.1457  0.6000  1.0000  -1.1628   0.0000   0.4109
   2.500   0.9406   0.01327   0.00568  -0.1464  0.6000  1.0000  -1.2121   0.0000   0.4010
   3.000   0.9985   0.01396   0.00635  -0.1473  0.6000  1.0000  -1.2618   0.0000   0.3923
   3.500   1.0559   0.01482   0.00725  -0.1483  0.6000  1.0000  -1.3133   0.0000   0.3846
   4.000   1.1088   0.01558   0.00800  -0.1481  0.5899  1.0000  -1.3652   0.0000   0.3772
   4.500   1.1596   0.01610   0.00858  -0.1474  0.5770  1.0000  -1.4211   0.0000   0.3700
   5.000   1.2157   0.01691   0.00926  -0.1477  0.5657  1.0000  -1.4832   0.0000   0.3638
   5.500   1.2618   0.01751   0.01004  -0.1463  0.5541  1.0000  -1.5409   0.0000   0.3575
   6.000   1.3141   0.01812   0.01064  -0.1458  0.5429  1.0000  -1.6104   0.0000   0.3519
   6.500   1.3636   0.01902   0.01169  -0.1451  0.5315  1.0000  -1.7818   0.0000   0.3466
   7.000   1.4104   0.01966   0.01248  -0.1437  0.5192  1.0000  -1.9986   0.0000   0.3413
   7.500   1.4644   0.02055   0.01334  -0.1437  0.5068  1.0000  -2.2535   0.0000   0.3368
   8.000   1.5034   0.02110   0.01422  -0.1409  0.4925  1.0000  -2.5013   0.0000   0.3316
   8.500   1.5437   0.02119   0.01430  -0.1379  0.4693  1.0000  -2.7900   0.0000   0.3264
   9.000   1.5846   0.02150   0.01458  -0.1352  0.4482  1.0000  -3.0878   0.0000   0.3215
   9.500   1.6133   0.02193   0.01520  -0.1305  0.4279  1.0000  -3.3555   0.0000   0.3162
  10.000   1.6352   0.02259   0.01612  -0.1247  0.4062  1.0000  -3.6056   0.0000   0.3107
  10.500   1.6495   0.02347   0.01713  -0.1179  0.3811  1.0000  -3.8448   0.0000   0.3050
  11.000   1.6561   0.02491   0.01863  -0.1105  0.3488  1.0000  -4.0929   0.0000   0.2993
  11.500   1.6551   0.02732   0.02103  -0.1032  0.3074  1.0000  -4.3107   0.0000   0.2940
  12.000   1.6375   0.03148   0.02499  -0.0954  0.2504  1.0000  -4.4579   0.0000   0.2889
  12.500   1.6012   0.03814   0.03130  -0.0880  0.1854  1.0000  -4.5179   0.0000   0.2845
  13.000   1.5583   0.04674   0.03959  -0.0825  0.1333  1.0000  -4.5346   0.0000   0.2814
  13.500   1.5206   0.05612   0.04881  -0.0792  0.1023  1.0000  -4.5566   0.0000   0.2795
  14.000   1.4940   0.06494   0.05764  -0.0773  0.0839  1.0000  -4.6154   0.0000   0.2781
  14.500   1.4708   0.07374   0.06644  -0.0762  0.0721  1.0000  -4.6834   0.0000   0.2770
  15.000   1.4621   0.08101   0.07392  -0.0755  0.0633  1.0000  -4.8115   0.0000   0.2758
  15.500   1.4544   0.08781   0.08079  -0.0744  0.0567  1.0000  -4.9346   0.0000   0.2742
  16.000   1.4545   0.09380   0.08691  -0.0738  0.0513  1.0000  -5.0991   0.0000   0.2727
  16.500   1.4626   0.09777   0.09087  -0.0714  0.0463  1.0000  -5.2894   0.0000   0.2697
  17.000   1.4689   0.10310   0.09648  -0.0711  0.0428  1.0000  -5.4679   0.0000   0.2681
  17.500   1.4722   0.10883   0.10232  -0.0714  0.0392  1.0000  -5.6535   0.0000   0.2671
  18.000   1.4811   0.11287   0.10650  -0.0698  0.0358  1.0000  -5.8351   0.0000   0.2645
  18.500   1.4804   0.11953   0.11357  -0.0708  0.0343  1.0000  -5.9509   0.0000   0.2641
  19.000   1.4752   0.12709   0.12150  -0.0727  0.0329  1.0000  -6.0623   0.0000   0.2643
  19.500   1.4655   0.13571   0.13049  -0.0757  0.0316  1.0000  -6.1557   0.0000   0.2654
  20.000   1.4495   0.14588   0.14104  -0.0802  0.0307  1.0000  -6.1871   0.0000   0.2679


