xflr5 v6.50

 Calculated polar for: NACA 6412

 1 1 Reynolds number fixed          Mach number fixed         

 xtrf =   0.300 (top)        1.000 (bottom)
 Mach =   0.000     Re =     0.262 e 6     Ncrit =   9.000

  alpha     CL        CD       CDp       Cm    Top Xtr Bot Xtr   Cpmin    Chinge    XCp    
 ------- -------- --------- --------- -------- ------- ------- -------- --------- ---------
  -3.000   0.3025   0.01618   0.00591  -0.1408  0.3000  0.0757  -1.7123   0.0000   0.7207
  -2.500   0.3572   0.01563   0.00530  -0.1406  0.3000  0.0902  -1.4532   0.0000   0.6471
  -2.000   0.4119   0.01510   0.00477  -0.1404  0.3000  0.1082  -1.2044   0.0000   0.5930
  -1.500   0.4665   0.01480   0.00449  -0.1402  0.3000  0.1342  -1.0055   0.0000   0.5515
  -1.000   0.5210   0.01447   0.00423  -0.1401  0.3000  0.1687  -0.9002   0.0000   0.5188
  -0.500   0.5754   0.01426   0.00413  -0.1399  0.3000  0.2160  -0.9413   0.0000   0.4923
   0.000   0.6295   0.01405   0.00411  -0.1398  0.3000  0.2816  -0.9825   0.0000   0.4704
   0.500   0.6832   0.01362   0.00416  -0.1398  0.3000  0.4249  -1.0234   0.0000   0.4523
   1.500   0.7842   0.01279   0.00434  -0.1373  0.3000  1.0000  -1.1084   0.0000   0.4214
   2.000   0.8372   0.01304   0.00448  -0.1368  0.3000  1.0000  -1.1527   0.0000   0.4091
   2.500   0.8897   0.01331   0.00467  -0.1363  0.3000  1.0000  -1.1993   0.0000   0.3983
   3.000   0.9418   0.01360   0.00493  -0.1357  0.3000  1.0000  -1.2467   0.0000   0.3886
   3.500   0.9932   0.01390   0.00520  -0.1350  0.3000  1.0000  -1.2968   0.0000   0.3798
   4.000   1.0439   0.01423   0.00553  -0.1343  0.3000  1.0000  -1.3477   0.0000   0.3718
   4.500   1.0940   0.01457   0.00589  -0.1334  0.3000  1.0000  -1.4010   0.0000   0.3645
   5.000   1.1433   0.01493   0.00634  -0.1324  0.3000  1.0000  -1.4564   0.0000   0.3578
   5.500   1.1917   0.01532   0.00679  -0.1313  0.3000  1.0000  -1.5138   0.0000   0.3514
   6.000   1.2380   0.01573   0.00729  -0.1298  0.3000  1.0000  -1.5738   0.0000   0.3454
   6.500   1.2834   0.01618   0.00789  -0.1282  0.3000  1.0000  -1.6594   0.0000   0.3397
   7.000   1.3283   0.01667   0.00851  -0.1266  0.3000  1.0000  -1.8503   0.0000   0.3344
   7.500   1.3724   0.01720   0.00920  -0.1249  0.3000  1.0000  -2.0768   0.0000   0.3293
   8.000   1.4159   0.01778   0.00995  -0.1231  0.3000  1.0000  -2.3101   0.0000   0.3245
   8.500   1.4584   0.01841   0.01083  -0.1213  0.3000  1.0000  -2.5834   0.0000   0.3200
   9.000   1.5000   0.01910   0.01174  -0.1194  0.3000  1.0000  -2.8718   0.0000   0.3156
   9.500   1.5404   0.01986   0.01275  -0.1173  0.3000  1.0000  -3.1655   0.0000   0.3113
  10.000   1.5798   0.02070   0.01386  -0.1152  0.3000  1.0000  -3.4648   0.0000   0.3072
  10.500   1.6177   0.02163   0.01515  -0.1129  0.3000  1.0000  -3.7645   0.0000   0.3032
  11.000   1.6517   0.02279   0.01662  -0.1102  0.2964  1.0000  -4.1137   0.0000   0.2992
  11.500   1.6414   0.02648   0.02004  -0.1025  0.2378  1.0000  -4.2939   0.0000   0.2940
  12.000   1.6162   0.03203   0.02524  -0.0949  0.1717  1.0000  -4.4071   0.0000   0.2893
  12.500   1.5856   0.03898   0.03190  -0.0888  0.1180  1.0000  -4.4884   0.0000   0.2855
  13.000   1.5601   0.04636   0.03916  -0.0846  0.0856  1.0000  -4.5807   0.0000   0.2827
  13.500   1.5417   0.05379   0.04664  -0.0819  0.0685  1.0000  -4.6940   0.0000   0.2805
  14.000   1.5210   0.06201   0.05493  -0.0801  0.0585  1.0000  -4.7879   0.0000   0.2789
  14.500   1.5109   0.06924   0.06237  -0.0790  0.0517  1.0000  -4.9266   0.0000   0.2775
  15.000   1.4910   0.07789   0.07114  -0.0782  0.0465  1.0000  -5.0079   0.0000   0.2765
  15.500   1.4873   0.08470   0.07817  -0.0779  0.0425  1.0000  -5.1694   0.0000   0.2753
  16.000   1.4791   0.09204   0.08562  -0.0778  0.0389  1.0000  -5.3113   0.0000   0.2745
  16.500   1.4727   0.09876   0.09245  -0.0773  0.0355  1.0000  -5.4464   0.0000   0.2732
  17.000   1.4740   0.10512   0.09903  -0.0778  0.0327  1.0000  -5.6300   0.0000   0.2723
  17.500   1.4748   0.11138   0.10543  -0.0783  0.0303  1.0000  -5.8099   0.0000   0.2715
  18.000   1.4762   0.11689   0.11100  -0.0781  0.0279  1.0000  -5.9791   0.0000   0.2701
  18.500   1.4810   0.12174   0.11610  -0.0775  0.0263  1.0000  -6.1416   0.0000   0.2683
  19.000   1.4825   0.12796   0.12259  -0.0788  0.0253  1.0000  -6.3052   0.0000   0.2679
  19.500   1.4827   0.13448   0.12939  -0.0804  0.0242  1.0000  -6.5017   0.0000   0.2677
  20.000   1.4786   0.14202   0.13721  -0.0831  0.0231  1.0000  -6.6578   0.0000   0.2684


