xflr5 v6.50

 Calculated polar for: NACA 6412

 1 1 Reynolds number fixed          Mach number fixed         

 xtrf =   0.300 (top)        1.000 (bottom)
 Mach =   0.000     Re =     0.175 e 6     Ncrit =   9.000

  alpha     CL        CD       CDp       Cm    Top Xtr Bot Xtr   Cpmin    Chinge    XCp    
 ------- -------- --------- --------- -------- ------- ------- -------- --------- ---------
  -3.000   0.2924   0.01923   0.00812  -0.1392  0.3000  0.0897  -1.6563   0.0000   0.7316
  -2.500   0.3467   0.01833   0.00710  -0.1390  0.3000  0.1056  -1.4203   0.0000   0.6543
  -2.000   0.4009   0.01752   0.00626  -0.1387  0.3000  0.1251  -1.1867   0.0000   0.5980
  -1.500   0.4551   0.01702   0.00576  -0.1384  0.3000  0.1534  -0.9983   0.0000   0.5550
  -1.000   0.5090   0.01655   0.00535  -0.1381  0.3000  0.1918  -0.8933   0.0000   0.5213
  -0.500   0.5628   0.01618   0.00509  -0.1378  0.3000  0.2439  -0.9338   0.0000   0.4940
   0.000   0.6161   0.01577   0.00496  -0.1376  0.3000  0.3212  -0.9742   0.0000   0.4716
   1.000   0.7164   0.01431   0.00491  -0.1349  0.3000  1.0000  -1.0542   0.0000   0.4353
   1.500   0.7693   0.01458   0.00499  -0.1344  0.3000  1.0000  -1.0980   0.0000   0.4211
   2.000   0.8216   0.01487   0.00514  -0.1339  0.3000  1.0000  -1.1416   0.0000   0.4086
   2.500   0.8734   0.01517   0.00536  -0.1332  0.3000  1.0000  -1.1881   0.0000   0.3976
   3.000   0.9247   0.01550   0.00565  -0.1325  0.3000  1.0000  -1.2347   0.0000   0.3878
   3.500   0.9753   0.01585   0.00597  -0.1317  0.3000  1.0000  -1.2841   0.0000   0.3789
   4.000   1.0253   0.01623   0.00634  -0.1309  0.3000  1.0000  -1.3339   0.0000   0.3708
   4.500   1.0745   0.01663   0.00677  -0.1299  0.3000  1.0000  -1.3864   0.0000   0.3634
   5.000   1.1229   0.01705   0.00730  -0.1288  0.3000  1.0000  -1.4404   0.0000   0.3566
   5.500   1.1703   0.01750   0.00783  -0.1275  0.3000  1.0000  -1.4962   0.0000   0.3502
   6.000   1.2155   0.01798   0.00841  -0.1259  0.3000  1.0000  -1.5548   0.0000   0.3441
   6.500   1.2599   0.01850   0.00906  -0.1242  0.3000  1.0000  -1.6181   0.0000   0.3384
   7.000   1.3038   0.01908   0.00985  -0.1224  0.3000  1.0000  -1.8000   0.0000   0.3330
   7.500   1.3468   0.01971   0.01066  -0.1206  0.3000  1.0000  -2.0127   0.0000   0.3279
   8.000   1.3888   0.02039   0.01155  -0.1187  0.3000  1.0000  -2.2395   0.0000   0.3230
   8.500   1.4299   0.02114   0.01259  -0.1167  0.3000  1.0000  -2.4898   0.0000   0.3184
   9.000   1.4697   0.02196   0.01368  -0.1146  0.3000  1.0000  -2.7691   0.0000   0.3140
   9.500   1.5084   0.02287   0.01487  -0.1124  0.3000  1.0000  -3.0525   0.0000   0.3097
  10.000   1.5456   0.02387   0.01620  -0.1101  0.3000  1.0000  -3.3397   0.0000   0.3055
  10.500   1.5816   0.02498   0.01772  -0.1077  0.3000  1.0000  -3.6285   0.0000   0.3015
  11.000   1.6160   0.02621   0.01936  -0.1052  0.3000  1.0000  -3.9442   0.0000   0.2976
  11.500   1.6493   0.02757   0.02119  -0.1026  0.3000  1.0000  -4.2889   0.0000   0.2938
  12.000   1.6375   0.03148   0.02499  -0.0954  0.2504  1.0000  -4.4579   0.0000   0.2889
  12.500   1.6012   0.03814   0.03130  -0.0880  0.1854  1.0000  -4.5179   0.0000   0.2845
  13.000   1.5583   0.04674   0.03959  -0.0825  0.1333  1.0000  -4.5346   0.0000   0.2814
  13.500   1.5206   0.05612   0.04881  -0.0792  0.1023  1.0000  -4.5566   0.0000   0.2795
  14.000   1.4940   0.06494   0.05764  -0.0773  0.0839  1.0000  -4.6154   0.0000   0.2781
  14.500   1.4708   0.07374   0.06644  -0.0762  0.0721  1.0000  -4.6834   0.0000   0.2770
  15.000   1.4621   0.08101   0.07392  -0.0755  0.0633  1.0000  -4.8115   0.0000   0.2758
  15.500   1.4544   0.08781   0.08079  -0.0744  0.0567  1.0000  -4.9346   0.0000   0.2742
  16.000   1.4545   0.09380   0.08691  -0.0738  0.0513  1.0000  -5.0991   0.0000   0.2727
  16.500   1.4626   0.09777   0.09087  -0.0714  0.0463  1.0000  -5.2894   0.0000   0.2697
  17.000   1.4689   0.10310   0.09648  -0.0711  0.0428  1.0000  -5.4679   0.0000   0.2681
  17.500   1.4722   0.10883   0.10232  -0.0714  0.0392  1.0000  -5.6535   0.0000   0.2671
  18.000   1.4811   0.11287   0.10650  -0.0698  0.0358  1.0000  -5.8351   0.0000   0.2645
  18.500   1.4804   0.11953   0.11357  -0.0708  0.0343  1.0000  -5.9509   0.0000   0.2641
  19.000   1.4752   0.12709   0.12150  -0.0727  0.0329  1.0000  -6.0623   0.0000   0.2643
  19.500   1.4655   0.13571   0.13049  -0.0757  0.0316  1.0000  -6.1557   0.0000   0.2654
  20.000   1.4495   0.14588   0.14104  -0.0802  0.0307  1.0000  -6.1871   0.0000   0.2679


