xflr5 v6.50

 Calculated polar for: NACA 6412

 1 1 Reynolds number fixed          Mach number fixed         

 xtrf =   0.500 (top)        1.000 (bottom)
 Mach =   0.000     Re =     0.350 e 6     Ncrit =   9.000

  alpha     CL        CD       CDp       Cm    Top Xtr Bot Xtr   Cpmin    Chinge    XCp    
 ------- -------- --------- --------- -------- ------- ------- -------- --------- ---------
  -3.000   0.3284   0.01313   0.00448  -0.1451  0.5000  0.0701  -1.6839   0.0000   0.6970
  -2.500   0.3844   0.01261   0.00396  -0.1452  0.5000  0.0841  -1.4161   0.0000   0.6310
  -2.000   0.4406   0.01222   0.00358  -0.1453  0.5000  0.1020  -1.1693   0.0000   0.5817
  -1.500   0.4967   0.01184   0.00330  -0.1454  0.5000  0.1286  -0.9657   0.0000   0.5436
  -1.000   0.5528   0.01159   0.00313  -0.1456  0.5000  0.1630  -0.9042   0.0000   0.5132
  -0.500   0.6088   0.01140   0.00309  -0.1457  0.5000  0.2097  -0.9454   0.0000   0.4884
   0.000   0.6647   0.01122   0.00310  -0.1459  0.5000  0.2717  -0.9897   0.0000   0.4678
   0.500   0.7204   0.01092   0.00316  -0.1462  0.5000  0.3853  -1.0341   0.0000   0.4506
   1.500   0.8261   0.00988   0.00340  -0.1448  0.5000  1.0000  -1.1237   0.0000   0.4216
   2.000   0.8816   0.01008   0.00354  -0.1448  0.5000  1.0000  -1.1717   0.0000   0.4100
   2.500   0.9368   0.01031   0.00375  -0.1448  0.5000  1.0000  -1.2209   0.0000   0.3997
   3.000   0.9919   0.01056   0.00399  -0.1448  0.5000  1.0000  -1.2724   0.0000   0.3905
   3.500   1.0469   0.01086   0.00429  -0.1448  0.5000  1.0000  -1.3247   0.0000   0.3823
   4.000   1.1020   0.01119   0.00465  -0.1449  0.5000  1.0000  -1.3802   0.0000   0.3748
   4.500   1.1571   0.01158   0.00511  -0.1450  0.5000  1.0000  -1.4375   0.0000   0.3680
   5.000   1.2127   0.01203   0.00563  -0.1453  0.5000  1.0000  -1.4975   0.0000   0.3619
   5.500   1.2688   0.01258   0.00625  -0.1458  0.5000  1.0000  -1.5625   0.0000   0.3563
   6.000   1.3201   0.01301   0.00674  -0.1452  0.4915  1.0000  -1.6303   0.0000   0.3507
   6.500   1.3723   0.01369   0.00738  -0.1449  0.4794  1.0000  -1.8178   0.0000   0.3456
   7.000   1.4196   0.01404   0.00790  -0.1436  0.4705  1.0000  -2.0460   0.0000   0.3404
   7.500   1.4640   0.01449   0.00831  -0.1417  0.4541  1.0000  -2.2826   0.0000   0.3352
   8.000   1.5018   0.01481   0.00875  -0.1385  0.4331  1.0000  -2.5403   0.0000   0.3299
   8.500   1.5413   0.01537   0.00937  -0.1358  0.4162  1.0000  -2.8237   0.0000   0.3249
   9.000   1.5733   0.01598   0.01000  -0.1317  0.3968  1.0000  -3.0941   0.0000   0.3197
   9.500   1.6030   0.01671   0.01081  -0.1274  0.3729  1.0000  -3.3647   0.0000   0.3146
  10.000   1.6272   0.01784   0.01196  -0.1226  0.3437  1.0000  -3.6229   0.0000   0.3096
  10.500   1.6438   0.01954   0.01358  -0.1170  0.3014  1.0000  -3.8805   0.0000   0.3046
  11.000   1.6417   0.02259   0.01632  -0.1096  0.2430  1.0000  -4.0940   0.0000   0.2992
  12.000   1.6071   0.03250   0.02558  -0.0952  0.1205  1.0000  -4.3880   0.0000   0.2898
  12.500   1.5903   0.03841   0.03135  -0.0901  0.0842  1.0000  -4.5285   0.0000   0.2862
  13.000   1.5773   0.04456   0.03749  -0.0864  0.0643  1.0000  -4.6799   0.0000   0.2832
  13.500   1.5669   0.05103   0.04406  -0.0837  0.0533  1.0000  -4.8363   0.0000   0.2808
  14.000   1.5520   0.05847   0.05164  -0.0818  0.0461  1.0000  -4.9617   0.0000   0.2790
  14.500   1.5460   0.06509   0.05845  -0.0806  0.0412  1.0000  -5.1330   0.0000   0.2773
  15.000   1.5233   0.07409   0.06759  -0.0797  0.0368  1.0000  -5.2099   0.0000   0.2764
  15.500   1.5211   0.08069   0.07439  -0.0794  0.0341  1.0000  -5.3951   0.0000   0.2751
  16.000   1.5166   0.08768   0.08156  -0.0794  0.0312  1.0000  -5.5704   0.0000   0.2742
  16.500   1.5041   0.09572   0.08972  -0.0797  0.0287  1.0000  -5.6932   0.0000   0.2737
  17.000   1.4905   0.10373   0.09788  -0.0798  0.0266  1.0000  -5.7849   0.0000   0.2731
  17.500   1.4918   0.11006   0.10443  -0.0804  0.0253  1.0000  -5.9725   0.0000   0.2722
  18.000   1.4912   0.11667   0.11125  -0.0813  0.0238  1.0000  -6.1450   0.0000   0.2716
  18.500   1.4914   0.12310   0.11784  -0.0824  0.0224  1.0000  -6.3218   0.0000   0.2711
  19.000   1.4900   0.12981   0.12470  -0.0839  0.0213  1.0000  -6.4873   0.0000   0.2709
  19.500   1.4894   0.13596   0.13098  -0.0851  0.0200  1.0000  -6.6864   0.0000   0.2705
  20.000   1.4863   0.14178   0.13705  -0.0854  0.0187  1.0000  -6.8367   0.0000   0.2695


